pglib_opf_case2383wp_k/dapi/pglib_opf_case2383wp_k_12regions_dapi.m
% -------------------------------------------------------------------------
% Partitioned MATPOWER Case File
% Copyright (c) 2025 Milad Hasanzadeh
% Generated on: 2026-06-14
% This file contains partitioned data for 12 regions


% -------------------- mpc_regionR1 --------------------

mpc_regionR1.version = '2';
mpc_regionR1.baseMVA = 100.0000;
mpc_regionR1.bus = [
%	bus_i       type        Pd          Qd          Gs          Bs          area        Vm          Va          baseKV      zone        Vmax        Vmin        
	 1	 2	 34.61	 22.6	 0	 0	 1	 1.03	 0	 220	 4	 1.11	 0.95;
	 2	 1	 0	 0	 0	 0	 1	 1.03	 0	 220	 5	 1.11	 0.95;
	 3	 1	 0	 0	 0	 0	 1	 1.03	 0	 220	 5	 1.11	 0.95;
	 4	 1	 0	 0	 0	 0	 1	 1	 0	 400	 5	 1.05	 0.95;
	 5	 1	 0	 0	 0	 0	 1	 1	 0	 400	 5	 1.05	 0.95;
	 6	 1	 0	 0	 0	 0	 1	 1	 0	 400	 5	 1.05	 0.95;
	 7	 1	 0	 0	 0	 0	 1	 1	 0	 400	 5	 1.05	 0.95;
	 8	 1	 0	 0	 0	 0	 1	 1.03	 0	 220	 5	 1.11	 0.95;
	 9	 1	 0	 0	 0	 0	 1	 1.03	 0	 220	 5	 1.11	 0.95;
	 10	 1	 0	 0	 0	 0	 1	 1.03	 0	 220	 5	 1.11	 0.95;
	 11	 1	 0	 0	 0	 0	 1	 1.03	 0	 220	 5	 1.11	 0.95;
	 12	 1	 0	 0	 0	 0	 1	 1	 0	 400	 5	 1.05	 0.95;
	 13	 1	 0	 0	 0	 0	 1	 1.03	 0	 220	 5	 1.11	 0.95;
	 14	 1	 0	 0	 0	 0	 1	 1.03	 0	 220	 5	 1.11	 0.95;
	 15	 1	 0	 0	 0	 0	 1	 1	 0	 400	 5	 1.05	 0.95;
	 16	 1	 0	 0	 0	 0	 1	 1	 0	 400	 5	 1.05	 0.95;
	 17	 1	 0	 0	 0	 0	 1	 1.03	 0	 220	 5	 1.11	 0.95;
	 18	 1	 0	 0	 0	 0	 1	 1.03	 0	 220	 5	 1.11	 0.95;
	 19	 1	 0	 0	 0	 0	 1	 1.03	 0	 220	 5	 1.11	 0.95;
	 20	 1	 0	 0	 0	 0	 1	 1.03	 0	 220	 5	 1.11	 0.95;
	 21	 2	 0	 40	 0	 0	 1	 1	 0	 400	 5	 1.05	 0.95;
	 22	 2	 0	 40	 0	 0	 1	 1	 0	 400	 5	 1.05	 0.95;
	 23	 1	 0	 0	 0	 0	 1	 1.03	 0	 220	 5	 1.11	 0.95;
	 24	 1	 0	 0	 0	 0	 1	 1.03	 0	 220	 5	 1.11	 0.95;
	 25	 1	 6.59	 0.5	 0	 0	 1	 1.035	 0	 110	 1	 1.12	 0.95;
	 26	 1	 2.98	 0.5	 0	 0	 1	 1.035	 0	 110	 4	 1.12	 0.95;
	 27	 1	 12.15	 3.2	 0	 0	 1	 1.035	 0	 110	 4	 1.12	 0.95;
	 28	 1	 14.17	 3.8	 0	 0	 1	 1.035	 0	 110	 5	 1.12	 0.95;
	 29	 1	 20.84	 5	 0	 0	 1	 1.035	 0	 110	 5	 1.12	 0.95;
	 30	 2	 20.84	 19	 0	 0	 1	 1.035	 0	 110	 5	 1.12	 0.95;
	 31	 2	 11.15	 1.2	 0	 0	 1	 1.035	 0	 110	 5	 1.12	 0.95;
	 32	 1	 9.37	 1.2	 0	 0	 1	 1.035	 0	 110	 5	 1.12	 0.95;
	 33	 1	 8.64	 3	 0	 0	 1	 1.035	 0	 110	 5	 1.12	 0.95;
	 34	 1	 15.42	 3.2	 0	 0	 1	 1.035	 0	 110	 5	 1.12	 0.95;
	 35	 1	 10.21	 2.4	 0	 0	 1	 1.035	 0	 110	 5	 1.12	 0.95;
	 36	 1	 23.96	 6.5	 0	 0	 1	 1.035	 0	 110	 5	 1.12	 0.95;
	 37	 2	 10.42	 3	 0	 0	 1	 1.035	 0	 110	 5	 1.12	 0.95;
	 38	 1	 9.37	 2.9	 0	 0	 1	 1.035	 0	 110	 5	 1.12	 0.95;
	 39	 1	 5.21	 1.7	 0	 0	 1	 1.035	 0	 110	 5	 1.12	 0.95;
	 40	 1	 22.92	 8	 0	 0	 1	 1.035	 0	 110	 5	 1.12	 0.95;
	 41	 1	 14.59	 5.5	 0	 0	 1	 1.035	 0	 110	 5	 1.12	 0.95;
	 42	 1	 0	 0	 0	 0	 1	 1.035	 0	 110	 5	 1.12	 0.95;
	 43	 1	 0	 0	 0	 0	 1	 1.035	 0	 110	 5	 1.12	 0.95;
	 44	 1	 15.63	 0.6	 0	 0	 1	 1.035	 0	 110	 5	 1.12	 0.95;
	 45	 1	 5.53	 1.2	 0	 0	 1	 1.035	 0	 110	 5	 1.12	 0.95;
	 46	 1	 11.46	 4.1	 0	 0	 1	 1.035	 0	 110	 5	 1.12	 0.95;
	 47	 2	 15.42	 4.5	 0	 0	 1	 1.035	 0	 110	 5	 1.12	 0.95;
	 48	 2	 12.19	 2.4	 0	 0	 1	 1.035	 0	 110	 5	 1.12	 0.95;
	 49	 2	 15.11	 3.4	 0	 0	 1	 1.035	 0	 110	 5	 1.12	 0.95;
	 50	 1	 26.04	 14	 0	 0	 1	 1.035	 0	 110	 5	 1.12	 0.95;
	 51	 1	 10.94	 3	 0	 0	 1	 1.035	 0	 110	 5	 1.12	 0.95;
	 52	 1	 15.84	 3.9	 0	 0	 1	 1.035	 0	 110	 5	 1.12	 0.95;
	 53	 1	 8.85	 2.2	 0	 0	 1	 1.035	 0	 110	 5	 1.12	 0.95;
	 54	 1	 6.78	 1.1	 0	 0	 1	 1.035	 0	 110	 5	 1.12	 0.95;
	 55	 1	 15.63	 2.8	 0	 0	 1	 1.035	 0	 110	 5	 1.12	 0.95;
	 56	 1	 17.19	 4.2	 0	 0	 1	 1.035	 0	 110	 5	 1.12	 0.95;
	 57	 1	 4.69	 0.6	 0	 0	 1	 1.035	 0	 110	 5	 1.12	 0.95;
	 58	 1	 3.65	 0.3	 0	 0	 1	 1.035	 0	 110	 5	 1.12	 0.95;
	 59	 1	 5.21	 1	 0	 0	 1	 1.035	 0	 110	 5	 1.12	 0.95;
	 60	 1	 1.04	 0.2	 0	 0	 1	 1.035	 0	 110	 5	 1.12	 0.95;
	 61	 1	 8.33	 1.5	 0	 0	 1	 1.035	 0	 110	 5	 1.12	 0.95;
	 62	 2	 0	 0.6	 0	 0	 1	 1.035	 0	 110	 5	 1.12	 0.95;
	 63	 1	 0.94	 0.2	 0	 0	 1	 1.035	 0	 110	 5	 1.12	 0.95;
	 64	 1	 5.32	 1	 0	 0	 1	 1.035	 0	 110	 5	 1.12	 0.95;
	 65	 1	 11.59	 0	 0	 0	 1	 1.035	 0	 110	 5	 1.12	 0.95;
	 66	 1	 0	 0	 0	 0	 1	 1.035	 0	 110	 5	 1.12	 0.95;
	 67	 1	 0	 0	 0	 0	 1	 1.035	 0	 110	 5	 1.12	 0.95;
	 68	 2	 31.26	 8	 0	 0	 1	 1.035	 0	 110	 5	 1.12	 0.95;
	 69	 1	 18.76	 6	 0	 0	 1	 1.035	 0	 110	 5	 1.12	 0.95;
	 70	 1	 13.54	 2	 0	 0	 1	 1.035	 0	 110	 5	 1.12	 0.95;
	 71	 1	 15.63	 5.5	 0	 0	 1	 1.035	 0	 110	 5	 1.12	 0.95;
	 72	 1	 0	 0	 0	 0	 1	 1.035	 0	 110	 5	 1.12	 0.95;
	 73	 2	-2	 0.2	 0	 0	 1	 1.035	 0	 110	 5	 1.12	 0.95;
	 74	 1	 0	 0	 0	 0	 1	 1.035	 0	 110	 5	 1.12	 0.95;
	 75	 1	 0	 0	 0	 0	 1	 1.035	 0	 110	 5	 1.12	 0.95;
	 76	 2	 19.9	 4.5	 0	 0	 1	 1.035	 0	 110	 5	 1.12	 0.95;
	 77	 2	 19.8	 4	 0	 0	 1	 1.035	 0	 110	 5	 1.12	 0.95;
	 78	 1	 0	 0	 0	 0	 1	 1.035	 0	 110	 5	 1.12	 0.95;
	 79	 1	 0	 0	 0	 0	 1	 1.035	 0	 110	 5	 1.12	 0.95;
	 80	 2	 19.28	 3.6	 0	 0	 1	 1.035	 0	 110	 5	 1.12	 0.95;
	 81	 1	 10.94	 3	 0	 0	 1	 1.035	 0	 110	 5	 1.12	 0.95;
	 82	 1	 8.33	 2	 0	 0	 1	 1.035	 0	 110	 5	 1.12	 0.95;
	 83	 1	 6.78	 1.5	 0	 0	 1	 1.035	 0	 110	 5	 1.12	 0.95;
	 84	 1	 16.05	 3.2	 0	 0	 1	 1.035	 0	 110	 5	 1.12	 0.95;
	 85	 1	 9.16	 2.7	 0	 0	 1	 1.035	 0	 110	 5	 1.12	 0.95;
	 86	 1	 6.1	 0	 0	 0	 1	 1.035	 0	 110	 5	 1.12	 0.95;
	 87	 1	 17.82	 3.7	 0	 0	 1	 1.035	 0	 110	 5	 1.12	 0.95;
	 88	 1	 16.98	 3.6	 0	 0	 1	 1.035	 0	 110	 5	 1.12	 0.95;
	 89	 1	 0	 0	 0	 0	 1	 1.035	 0	 110	 5	 1.12	 0.95;
	 90	 1	 2.09	 2	 0	 0	 1	 1.035	 0	 110	 5	 1.12	 0.95;
	 91	 1	 4.07	 0.3	 0	 0	 1	 1.035	 0	 110	 5	 1.12	 0.95;
	 92	 1	 16.15	 3.5	 0	 0	 1	 1.035	 0	 110	 5	 1.12	 0.95;
	 93	 1	 0	 0	 0	 0	 1	 1.035	 0	 110	 5	 1.12	 0.95;
	 94	 1	 0	 0	 0	 0	 1	 1.035	 0	 110	 5	 1.12	 0.95;
	 95	 1	 0	 0	 0	 0	 1	 1.035	 0	 110	 5	 1.12	 0.95;
	 96	 1	 2.09	 0.5	 0	 0	 1	 1.035	 0	 110	 5	 1.12	 0.95;
	 97	 1	 8.54	 1.8	 0	 0	 1	 1.035	 0	 110	 5	 1.12	 0.95;
	 98	 1	 23.96	 4	 0	 0	 1	 1.035	 0	 110	 5	 1.12	 0.95;
	 99	 1	 10.1	 4.2	 0	 0	 1	 1.035	 0	 110	 5	 1.12	 0.95;
	 100	 2	 25	 10	 0	 0	 1	 1.035	 0	 110	 5	 1.12	 0.95;
	 101	 1	 7.81	 2.5	 0	 0	 1	 1.035	 0	 110	 5	 1.12	 0.95;
	 102	 1	 5.21	 1.6	 0	 0	 1	 1.035	 0	 110	 5	 1.12	 0.95;
	 103	 1	 8.33	 2.4	 0	 0	 1	 1.035	 0	 110	 5	 1.12	 0.95;
	 104	 1	 10.94	 4.3	 0	 0	 1	 1.035	 0	 110	 5	 1.12	 0.95;
	 105	 1	 27.19	 4.6	 0	 0	 1	 1.035	 0	 110	 5	 1.12	 0.95;
	 106	 2	 0	 0	 0	 0	 1	 1.035	 0	 110	 5	 1.12	 0.95;
	 107	 1	 18.24	 4.4	 0	 0	 1	 1.035	 0	 110	 5	 1.12	 0.95;
	 108	 1	 13.54	 3	 0	 0	 1	 1.035	 0	 110	 5	 1.12	 0.95;
	 109	 1	 13.89	 0	 0	 0	 1	 1.035	 0	 110	 5	 1.12	 0.95;
	 110	 1	 17.71	 3.7	 0	 0	 1	 1.035	 0	 110	 5	 1.12	 0.95;
	 111	 1	 11.29	 0	 0	 0	 1	 1.035	 0	 110	 5	 1.12	 0.95;
	 112	 1	 11.15	 3.5	 0	 0	 1	 1.035	 0	 110	 5	 1.12	 0.95;
	 113	 1	 17.19	 2.4	 0	 0	 1	 1.035	 0	 110	 5	 1.12	 0.95;
	 114	 1	 8.33	 2.6	 0	 0	 1	 1.035	 0	 110	 5	 1.12	 0.95;
	 115	 2	 16.36	 1.2	 0	 0	 1	 1.035	 0	 110	 5	 1.12	 0.95;
	 116	 1	 13.75	 2.5	 0	 0	 1	 1.035	 0	 110	 5	 1.12	 0.95;
	 117	 1	 6.26	 1.5	 0	 0	 1	 1.035	 0	 110	 5	 1.12	 0.95;
	 118	 1	 15.63	 3.5	 0	 0	 1	 1.035	 0	 110	 5	 1.12	 0.95;
	 119	 2	 98.94	 25	 0	 0	 1	 1.035	 0	 110	 5	 1.12	 0.95;
	 120	 1	 8.02	 2.9	 0	 0	 1	 1.035	 0	 110	 5	 1.12	 0.95;
	 121	 1	 12.5	 3.5	 0	 0	 1	 1.035	 0	 110	 5	 1.12	 0.95;
	 122	 1	 16.05	 3.6	 0	 0	 1	 1.035	 0	 110	 5	 1.12	 0.95;
	 123	 2	 9.06	 3.9	 0	 0	 1	 1.035	 0	 110	 5	 1.12	 0.95;
	 124	 1	 13.13	 4.2	 0	 0	 1	 1.035	 0	 110	 5	 1.12	 0.95;
	 125	 1	 0	 0	 0	 0	 1	 1.035	 0	 110	 5	 1.12	 0.95;
	 126	 1	 10.42	 3	 0	 0	 1	 1.035	 0	 110	 5	 1.12	 0.95;
	 127	 1	 14.59	 1.5	 0	 0	 1	 1.035	 0	 110	 5	 1.12	 0.95;
	 128	 1	 11.46	 1	 0	 0	 1	 1.035	 0	 110	 5	 1.12	 0.95;
	 129	 1	 3.13	 0.5	 0	 0	 1	 1.035	 0	 110	 5	 1.12	 0.95;
	 130	 1	 18.13	 6.2	 0	 0	 1	 1.035	 0	 110	 5	 1.12	 0.95;
	 131	 1	 14.59	 3.8	 0	 0	 1	 1.035	 0	 110	 5	 1.12	 0.95;
	 132	 1	 17.09	 4.3	 0	 0	 1	 1.035	 0	 110	 5	 1.12	 0.95;
	 133	 1	 14.59	 3	 0	 0	 1	 1.035	 0	 110	 5	 1.12	 0.95;
	 134	 1	 12.5	 1	 0	 0	 1	 1.035	 0	 110	 5	 1.12	 0.95;
	 135	 1	 13.54	 4	 0	 0	 1	 1.035	 0	 110	 5	 1.12	 0.95;
	 136	 1	 16.67	 3.2	 0	 0	 1	 1.035	 0	 110	 5	 1.12	 0.95;
	 137	 1	 5.21	 2	 0	 0	 1	 1.035	 0	 110	 5	 1.12	 0.95;
	 138	 1	 1.98	 0.1	 0	 0	 1	 1.035	 0	 110	 5	 1.12	 0.95;
	 139	 1	 14.59	 2.5	 0	 0	 1	 1.035	 0	 110	 5	 1.12	 0.95;
	 140	 2	 14.06	 4	 0	 0	 1	 1.035	 0	 110	 5	 1.12	 0.95;
	 141	 1	 16.36	 5.4	 0	 0	 1	 1.035	 0	 110	 5	 1.12	 0.95;
	 142	 1	 12.5	 3	 0	 0	 1	 1.035	 0	 110	 5	 1.12	 0.95;
	 143	 1	 3.65	 1	 0	 0	 1	 1.035	 0	 110	 5	 1.12	 0.95;
	 144	 1	 4.17	 0.5	 0	 0	 1	 1.035	 0	 110	 5	 1.12	 0.95;
	 145	 1	 11.46	 2.4	 0	 0	 1	 1.035	 0	 110	 5	 1.12	 0.95;
	 146	 1	 25	 4.4	 0	 0	 1	 1.035	 0	 110	 5	 1.12	 0.95;
	 147	 1	 0	 0	 0	 0	 1	 1.035	 0	 110	 5	 1.12	 0.95;
	 148	 1	 10.42	 2.4	 0	 0	 1	 1.035	 0	 110	 5	 1.12	 0.95;
	 149	 1	 20.32	 4	 0	 0	 1	 1.035	 0	 110	 5	 1.12	 0.95;
	 150	 1	 9.06	 1.4	 0	 0	 1	 1.035	 0	 110	 5	 1.12	 0.95;
	 151	 1	 25.52	 3	 0	 0	 1	 1.035	 0	 110	 5	 1.12	 0.95;
	 152	 2	 2.61	 0.4	 0	 0	 1	 1.035	 0	 110	 5	 1.12	 0.95;
	 153	 1	 18.76	 5	 0	 0	 1	 1.035	 0	 110	 5	 1.12	 0.95;
	 154	 1	 21.87	 4.3	 0	 0	 1	 1.035	 0	 110	 5	 1.12	 0.95;
	 155	 1	 0.1	 0.1	 0	 0	 1	 1.035	 0	 110	 5	 1.12	 0.95;
	 156	 1	 4.17	 0.3	 0	 0	 1	 1.035	 0	 110	 5	 1.12	 0.95;
	 157	 1	 12.5	 4	 0	 0	 1	 1.035	 0	 110	 5	 1.12	 0.95;
	 158	 1	 0	 0	 0	 0	 1	 1.035	 0	 110	 5	 1.12	 0.95;
	 159	 1	 2.19	 0.2	 0	 0	 1	 1.035	 0	 110	 5	 1.12	 0.95;
	 160	 1	 5.21	 0.9	 0	 0	 1	 1.035	 0	 110	 5	 1.12	 0.95;
	 161	 1	 13.54	 3.3	 0	 0	 1	 1.035	 0	 110	 5	 1.12	 0.95;
	 162	 1	 3.13	 1	 0	 0	 1	 1.035	 0	 110	 5	 1.12	 0.95;
	 163	 1	 7.39	 2.4	 0	 0	 1	 1.035	 0	 110	 5	 1.12	 0.95;
	 164	 1	 7.39	 1.6	 0	 0	 1	 1.035	 0	 110	 5	 1.12	 0.95;
	 165	 1	 14.9	 3.3	 0	 0	 1	 1.035	 0	 110	 5	 1.12	 0.95;
	 166	 1	 12.08	 4.1	 0	 0	 1	 1.035	 0	 110	 5	 1.12	 0.95;
	 167	 2	 6.26	 2	 0	 0	 1	 1.035	 0	 110	 5	 1.12	 0.95;
	 168	 1	 2.82	 1	 0	 0	 1	 1.035	 0	 110	 5	 1.12	 0.95;
	 169	 1	 6.78	 2	 0	 0	 1	 1.035	 0	 110	 5	 1.12	 0.95;
	 170	 2	 17.4	 3.4	 0	 0	 1	 1.035	 0	 110	 5	 1.12	 0.95;
	 171	 2	 8.33	 2.8	 0	 0	 1	 1.035	 0	 110	 5	 1.12	 0.95;
	 172	 1	 12.61	 3.8	 0	 0	 1	 1.035	 0	 110	 5	 1.12	 0.95;
	 173	 2	 5.21	 2.2	 0	 0	 1	 1.035	 0	 110	 5	 1.12	 0.95;
	 174	 1	 5.21	 1.1	 0	 0	 1	 1.035	 0	 110	 5	 1.12	 0.95;
	 175	 2	 17.71	 4	 0	 0	 1	 1.035	 0	 110	 5	 1.12	 0.95;
	 176	 1	 21.87	 4.1	 0	 0	 1	 1.035	 0	 110	 5	 1.12	 0.95;
	 177	 1	 25	 4.7	 0	 0	 1	 1.035	 0	 110	 5	 1.12	 0.95;
	 178	 1	 1.04	 0.5	 0	 0	 1	 1.035	 0	 110	 5	 1.12	 0.95;
	 179	 1	 24.58	 6.8	 0	 0	 1	 1.035	 0	 110	 5	 1.12	 0.95;
	 180	 1	 12.08	 3.2	 0	 0	 1	 1.035	 0	 110	 5	 1.12	 0.95;
	 181	 1	 3.65	 1.3	 0	 0	 1	 1.035	 0	 110	 5	 1.12	 0.95;
	 182	 1	 25	 7	 0	 0	 1	 1.035	 0	 110	 5	 1.12	 0.95;
	 183	 2	 12.29	 3.4	 0	 0	 1	 1.035	 0	 110	 5	 1.12	 0.95;
	 184	 1	 19.7	 4.1	 0	 0	 1	 1.035	 0	 110	 5	 1.12	 0.95;
	 185	 1	 8.64	 3.2	 0	 0	 1	 1.035	 0	 110	 5	 1.12	 0.95;
	 186	 1	 8.85	 2	 0	 0	 1	 1.035	 0	 110	 5	 1.12	 0.95;
	 187	 1	 28.13	 3.6	 0	 0	 1	 1.035	 0	 110	 5	 1.12	 0.95;
	 188	 1	 16.57	 3.6	 0	 0	 1	 1.035	 0	 110	 5	 1.12	 0.95;
	 189	 1	 0	 0	 0	 0	 1	 1.035	 0	 110	 5	 1.12	 0.95;
	 190	 1	 13.75	 2.4	 0	 0	 1	 1.035	 0	 110	 5	 1.12	 0.95;
	 191	 1	 9.89	 3	 0	 0	 1	 1.035	 0	 110	 5	 1.12	 0.95;
	 192	 1	 22.92	 2	 0	 0	 1	 1.035	 0	 110	 5	 1.12	 0.95;
	 193	 1	 5.94	 1.2	 0	 0	 1	 1.035	 0	 110	 5	 1.12	 0.95;
	 194	 1	 3.5	 0	 0	 0	 1	 1.035	 0	 110	 5	 1.12	 0.95;
	 195	 1	 9.37	 2.3	 0	 0	 1	 1.035	 0	 110	 5	 1.12	 0.95;
	 196	 1	 9.37	 0.4	 0	 0	 1	 1.035	 0	 110	 5	 1.12	 0.95;
	 197	 1	 9.37	 0.5	 0	 0	 1	 1.035	 0	 110	 5	 1.12	 0.95;
	 198	 2	 26.04	 3	 0	 0	 1	 1.035	 0	 110	 5	 1.12	 0.95;
	 199	 1	 8.85	 4.3	 0	 0	 1	 1.035	 0	 110	 5	 1.12	 0.95;
	 200	 1	 0	 0	 0	 0	 1	 1.035	 0	 110	 5	 1.12	 0.95;
...
];

mpc_regionR1.gen = [
%	bus         Pg          Qg          Qmax        Qmin        Vg          mBase       status      Pmax        Pmin        Pc1         Pc2         Qc1min      Qc1max      Qc2min      Qc2max      ramp_agc    ramp_10     ramp_30     ramp_q      apf         
	 1	 147.5	 115	 360	-130	 1.03	 714	 1	 260	 35;
	 21	 106	 50	 220	-120	 1	 430	 1	 177	 35;
	 22	 190	 23.5	 220	-173	 1	 430	 1	 345	 35;
	 30	 131.625	 0	 106	-106	 1.035	 132	 1	 211	 52.25;
	 31	 54.7375	 0	 55	-55	 1.035	 1	 1	 109	 0.475;
	 37	 37.5225	 0	 37	-37	 1.035	 3	 1	 74	 1.045;
	 47	 165.375	 0	 154	-154	 1.035	 60	 1	 307	 23.75;
	 48	 54.5	 0	 45	-45	 1.035	 48	 1	 90	 19;
	 49	 31.83	 0	 30	-30	 1.035	 9	 1	 60	 3.66;
	 62	 14.6675	 0	 15	-15	 1.035	 1	 1	 29	 0.335;
	 68	 50.85	 0	 999	-999	 1.035	 14	 1	 96	 5.7;
	 73	 35.975	 0	 35	-35	 1.035	 5	 1	 70	 1.95;
	 76	 163.375	 0	 142	-142	 1.035	 108	 1	 284	 42.75;
	 77	 91.875	 0	 80	-80	 1.035	 60	 1	 160	 23.75;
	 80	 28.045	 0	 27	-27	 1.035	 8	 1	 53	 3.09;
	 100	 152.875	 0	 151	-151	 1.035	 12	 1	 301	 4.75;
	 106	 121.175	 0	 115	-115	 1.035	 31	 1	 230	 12.35;
	 115	 54.6175	 0	 54	-54	 1.035	 3	 1	 108	 1.235;
	 119	 90.6375	 0	 999	-999	 1.035	 59	 1	 158	 23.275;
	 123	 51.88	 0	 52	-52	 1.035	 2	 1	 103	 0.76;
	 140	 29.975	 0	 30	-30	 1.035	 2	 1	 59	 0.95;
	 152	 20.4275	 0	 20	-20	 1.035	 2	 1	 40	 0.855;
	 167	 41.5475	 0	 42	-42	 1.035	 0	 1	 83	 0.095;
	 170	 45.595	 0	 45	-45	 1.035	 3	 1	 90	 1.19;
	 171	 54.2375	 0	 54	-54	 1.035	 1	 1	 108	 0.475;
	 173	 34.7075	 0	 32	-32	 1.035	 16	 1	 63	 6.415;
	 175	 28.095	 0	 28	-28	 1.035	 1	 1	 56	 0.19;
	 183	 21.095	 0	 21	-21	 1.035	 1	 1	 42	 0.19;
	 198	 153.7625	 0	 154	-154	 1.035	 1	 1	 307	 0.525;
	 203	 48.2125	 0	 48	-48	 1.035	 4	 1	 95	 1.425;
	 205	 19.5725	 0	 20	-20	 1.035	 0	 1	 39	 0.145;
	 209	 55.5625	-0.7	 43	-44.4	 1.035	 66	 1	 85	 26.125;
	 212	 80.5375	 0	 77	-77	 1.035	 20	 1	 153	 8.075;
	 233	 69.1125	 0	 57	-57	 1.035	 61	 1	 114	 24.225;
	 243	 134.2875	 0	 126	-126	 1.035	 44	 1	 251	 17.575;
	 249	 96.1625	 0	 95	-95	 1.035	 8	 1	 189	 3.325;
	 250	 54.875	 0	 50.4	-50.4	 1.035	 60	 1	 86	 23.75;
	 251	 89.375	 0	 78	-78	 1.035	 60	 1	 155	 23.75;
];

mpc_regionR1.branch = [
%	fbus        tbus        r           x           b           rateA       rateB       rateC       ratio       angle       status      angmin      angmax      
	 13	 1	 0.01386	 0.08702	 0.13504	 304	 304	 304	 0	 0	 1	-30	 30;
	 19	 1	 0.01176	 0.06829	 0.1028	 381	 381	 381	 0	 0	 1	-30	 30;
	 13	 2	 0.0018	 0.02114	 0.0515	 160	 160	 160	 0	 0	 1	-30	 30;
	 43	 2	 0.00155	 0.06585	 0	 160	 160	 160	 1.0712	 0	 1	-30	 30;
	 3	 5	 0.00059	 0.03093	 0	 400	 400	 400	 1.1047	 0	 1	-30	 30;
	 24	 3	 0.0057	 0.04236	 0.12971	 365	 365	 365	 0	 0	 1	-30	 30;
	 5	 4	 0	 0.0001	 0	 1593	 1593	 1593	 0	 0	 1	-30	 30;
	 66	 4	 0.00137	 0.05969	 0	 250	 250	 250	 1.0995	 0	 1	-30	 30;
	 21	 5	 0.00281	 0.03312	 0.88096	 831	 831	 831	 0	 0	 1	-30	 30;
	 7	 6	 0	 0.0001	 0	 1593	 1593	 1593	 0	 0	 1	-30	 30;
	 6	 12	 0.00224	 0.02583	 0.72352	 831	 831	 831	 0	 0	 1	-30	 30;
	 6	 21	 0.00133	 0.01569	 0.41821	 831	 831	 831	 0	 0	 1	-30	 30;
	 74	 6	 0.00129	 0.06437	 0	 250	 250	 250	 1.0465	 0	 1	-30	 30;
	 15	 7	 0.0021	 0.02475	 0.65792	 831	 831	 831	 0	 0	 1	-30	 30;
	 7	 22	 0.00133	 0.01569	 0.41821	 831	 831	 831	 0	 0	 1	-30	 30;
	 75	 7	 0.00129	 0.06437	 0	 250	 250	 250	 1.0537	 0	 1	-30	 30;
	 9	 8	 0	 0.0001	 0	 876	 876	 876	 0	 0	 1	-30	 30;
	 8	 13	 0.02738	 0.14254	 0.20047	 274	 274	 274	 0	 0	 1	-30	 30;
	 79	 8	 0.00159	 0.06694	 0	 160	 160	 160	 1.0229	 0	 1	-30	 30;
	 9	 24	 0.01905	 0.11132	 0.16785	 274	 274	 274	 0	 0	 1	-30	 30;
	 78	 9	 0.0037	 0.18657	 0	 120	 120	 120	 1.0617	 0	 1	-30	 30;
	 11	 10	 0	 0.0001	 0	 876	 876	 876	 0	 0	 1	-30	 30;
	 10	 12	 0.0004	 0.03	 0	 500	 500	 500	 1.1321	-3.6	 1	-30	 30;
	 10	 17	 0.00564	 0.04196	 0.06437	 274	 274	 274	 0	 0	 1	-30	 30;
	 95	 10	 0.00163	 0.06671	 0	 160	 160	 160	 1.0201	 0	 1	-30	 30;
	 11	 14	 0.00795	 0.05919	 0.0908	 274	 274	 274	 0	 0	 1	-30	 30;
	 93	 11	 0.00163	 0.06671	 0	 160	 160	 160	 0.9844	 0	 1	-30	 30;
	 94	 12	 0.00059	 0.04206	 0	 330	 330	 330	 1.0822	 0	 1	-30	 30;
	 14	 13	 0	 0.0001	 0	 876	 876	 876	 0	 0	 1	-30	 30;
	 101	 13	 0.00159	 0.06736	 0	 160	 160	 160	 1.0261	 0	 1	-30	 30;
	 102	 14	 0.00159	 0.06736	 0	 160	 160	 160	 1.0259	 0	 1	-30	 30;
	 16	 15	 0	 0.0001	 0	 1593	 1593	 1593	 0	 0	 1	-30	 30;
	 147	 16	 0.00089	 0.05411	 0	 330	 330	 330	 1.0528	 0	 1	-30	 30;
	 18	 17	 0	 0.0001	 0	 876	 876	 876	 0	 0	 1	-30	 30;
	 212	 17	 0.00157	 0.0675	 0	 160	 160	 160	 1.0215	 0	 1	-30	 30;
	 18	 20	 0.00731	 0.05579	 0.08364	 274	 274	 274	 0	 0	 1	-30	 30;
	 213	 18	 0.00277	 0.1062	 0	 100	 100	 100	 1.0355	 0	 1	-30	 30;
	 20	 19	 0	 0.0001	 0	 876	 876	 876	 0	 0	 1	-30	 30;
	 229	 19	 0.00161	 0.06736	 0	 160	 160	 160	 1.05	 0	 1	-30	 30;
	 229	 20	 0.00165	 0.06671	 0	 160	 160	 160	 1.0491	 0	 1	-30	 30;
	 22	 21	 0	 0.0001	 0	 1593	 1593	 1593	 0	 0	 1	-30	 30;
	 247	 21	 0.00137	 0.05969	 0	 250	 250	 250	 1.1045	 0	 1	-30	 30;
	 248	 21	 0.00137	 0.05969	 0	 250	 250	 250	 1.105	 0	 1	-30	 30;
	 24	 23	 0	 0.0001	 0	 876	 876	 876	 0	 0	 1	-30	 30;
	 250	 23	 0.00155	 0.06798	 0	 160	 160	 160	 1.0297	 0	 1	-30	 30;
	 251	 24	 0.00161	 0.06775	 0	 160	 160	 160	 1.0286	 0	 1	-30	 30;
	 34	 25	 0.07686	 0.09504	 0.01016	 68	 68	 68	 0	 0	 1	-30	 30;
	 26	 27	 0.02008	 0.06818	 0.00674	 10	 10	 10	 0	 0	 1	-30	 30;
	 140	 27	 0.03074	 0.09917	 0.01021	 137	 137	 137	 0	 0	 1	-30	 30;
	 75	 28	 0.00612	 0.0157	 0.00157	 120	 120	 120	 0	 0	 1	-30	 30;
	 28	 76	 0.00331	 0.01091	 0.00111	 137	 137	 137	 0	 0	 1	-30	 30;
	 29	 40	 0.00653	 0.02116	 0.0022	 137	 137	 137	 0	 0	 1	-30	 30;
	 29	 43	 0.01397	 0.04463	 0.00462	 125	 125	 125	 0	 0	 1	-30	 30;
	 33	 30	 0.00231	 0.00752	 0.00077	 137	 137	 137	 0	 0	 1	-30	 30;
	 30	 118	 0.00264	 0.00752	 0.00075	 120	 120	 120	 0	 0	 1	-30	 30;
	 30	 186	 0.01314	 0.04182	 0.00448	 137	 137	 137	 0	 0	 1	-30	 30;
	 239	 30	 0.00157	 0.00496	 0.00051	 137	 137	 137	 0	 0	 1	-30	 30;
	 239	 30	 0.00157	 0.00496	 0.00051	 137	 137	 137	 0	 0	 1	-30	 30;
	 240	 30	 0.00215	 0.00719	 0.00072	 57	 57	 57	 0	 0	 1	-30	 30;
	 32	 31	 0	 0.0001	 0	 438	 438	 438	 0	 0	 1	-30	 30;
	 31	 67	 0.02355	 0.06215	 0.00639	 81	 81	 81	 0	 0	 1	-30	 30;
	 103	 31	 0.0276	 0.0495	 0.00448	 68	 68	 68	 0	 0	 1	-30	 30;
	 31	 250	 0.06645	 0.17719	 0.01791	 70	 70	 70	 0	 0	 1	-30	 30;
	 32	 190	 0.0376	 0.09174	 0.00968	 99	 99	 99	 0	 0	 1	-30	 30;
	 182	 33	 0.00397	 0.01298	 0.00131	 137	 137	 137	 0	 0	 1	-30	 30;
	 34	 38	 0.01322	 0.01777	 0.00191	 61	 61	 61	 0	 0	 1	-30	 30;
	 141	 34	 0.03636	 0.12066	 0.01181	 114	 114	 114	 0	 0	 1	-30	 30;
	 34	 184	 0.02331	 0.07893	 0.00745	 68	 68	 68	 0	 0	 1	-30	 30;
	 127	 35	 0.021	 0.0679	 0.00696	 122	 122	 122	 0	 0	 1	-30	 30;
	 35	 247	 0.02139	 0.06954	 0.00729	 120	 120	 120	 0	 0	 1	-30	 30;
	 36	 41	 0.00306	 0.00992	 0.00102	 137	 137	 137	 0	 0	 1	-30	 30;
	 100	 36	 0.00331	 0.01083	 0.00109	 137	 137	 137	 0	 0	 1	-30	 30;
	 37	 162	 0.01653	 0.0314	 0.0029	 47	 47	 47	 0	 0	 1	-30	 30;
	 167	 37	 0.03347	 0.06529	 0.00593	 68	 68	 68	 0	 0	 1	-30	 30;
	 38	 99	 0.02231	 0.07231	 0.01493	 75	 75	 75	 0	 0	 1	-30	 30;
	 39	 46	 0.0374	 0.12066	 0.01272	 140	 140	 140	 0	 0	 1	-30	 30;
	 40	 182	 0.00198	 0.00628	 0.00065	 137	 137	 137	 0	 0	 1	-30	 30;
	 41	 102	 0.00421	 0.01058	 0.00106	 120	 120	 120	 0	 0	 1	-30	 30;
	 43	 42	 0	 0.0001	 0	 438	 438	 438	 0	 0	 1	-30	 30;
	 153	 42	 0.00868	 0.0281	 0.00295	 87	 87	 87	 0	 0	 1	-30	 30;
	 100	 43	 0.0186	 0.0562	 0.00581	 81	 81	 81	 0	 0	 1	-30	 30;
	 210	 43	 0.0205	 0.06876	 0.00688	 137	 137	 137	 0	 0	 1	-30	 30;
	 73	 44	 0.03669	 0.06471	 0.00611	 90	 90	 90	 0	 0	 1	-30	 30;
	 44	 152	 0.01975	 0.06215	 0.00675	 90	 90	 90	 0	 0	 1	-30	 30;
	 142	 45	 0.03124	 0.05603	 0.00563	 83	 83	 83	 0	 0	 1	-30	 30;
	 45	 160	 0.0262	 0.04397	 0.00434	 78	 78	 78	 0	 0	 1	-30	 30;
	 46	 51	 0.00545	 0.0076	 0.00077	 68	 68	 68	 0	 0	 1	-30	 30;
	 55	 46	 0.03413	 0.05992	 0.00566	 47	 47	 47	 0	 0	 1	-30	 30;
	 46	 220	 0.06843	 0.09157	 0.0084	 68	 68	 68	 0	 0	 1	-30	 30;
	 48	 47	 0	 0.0001	 0	 438	 438	 438	 0	 0	 1	-30	 30;
	 47	 78	 0.03025	 0.09752	 0.01002	 85	 85	 85	 0	 0	 1	-30	 30;
	 82	 47	 0.00983	 0.01736	 0.0016	 137	 137	 137	 0	 0	 1	-30	 30;
	 47	 247	 0.03669	 0.11818	 0.01217	 95	 95	 95	 0	 0	 1	-30	 30;
	 145	 48	 0.00711	 0.02314	 0.00234	 123	 123	 123	 0	 0	 1	-30	 30;
	 48	 180	 0.00331	 0.01074	 0.00109	 137	 137	 137	 0	 0	 1	-30	 30;
	 49	 212	 0.01719	 0.05777	 0.00578	 68	 68	 68	 0	 0	 1	-30	 30;
	 221	 49	 0.01636	 0.05289	 0.00558	 140	 140	 140	 0	 0	 1	-30	 30;
	 221	 49	 0.01636	 0.05289	 0.00558	 140	 140	 140	 0	 0	 1	-30	 30;
	 218	 50	 0.02132	 0.06942	 0.00707	 137	 137	 137	 0	 0	 1	-30	 30;
	 50	 229	 0.02769	 0.0895	 0.00917	 95	 95	 95	 0	 0	 1	-30	 30;
	 51	 191	 0.06661	 0.11306	 0.01118	 68	 68	 68	 0	 0	 1	-30	 30;
	 52	 94	 0.02868	 0.09256	 0.00951	 57	 57	 57	 0	 0	 1	-30	 30;
	 171	 52	 0.01851	 0.0595	 0.00627	 125	 125	 125	 0	 0	 1	-30	 30;
	 54	 53	 0.01223	 0.0386	 0.0042	 30	 30	 30	 0	 0	 1	-30	 30;
	 54	 203	 0.0395	 0.12455	 0.01176	 38	 38	 38	 0	 0	 1	-30	 30;
	 96	 55	 0.01455	 0.04702	 0.00483	 68	 68	 68	 0	 0	 1	-30	 30;
	 78	 56	 0.01116	 0.01529	 0.00275	 114	 114	 114	 0	 0	 1	-30	 30;
	 56	 131	 0.01116	 0.01529	 0.00275	 114	 114	 114	 0	 0	 1	-30	 30;
	 57	 245	 0.00182	 0.00388	 0.00027	 76	 76	 76	 0	 0	 1	-30	 30;
	 188	 58	 0.01824	 0.05899	 0.00605	 122	 122	 122	 0	 0	 1	-30	 30;
	 127	 59	 0.0405	 0.07107	 0.00673	 90	 90	 90	 0	 0	 1	-30	 30;
	 59	 197	 0.04628	 0.07107	 0.0076	 78	 78	 78	 0	 0	 1	-30	 30;
	 73	 60	 0.03587	 0.07132	 0.00624	 90	 90	 90	 0	 0	 1	-30	 30;
	 60	 198	 0.03587	 0.07132	 0.00624	 38	 38	 38	 0	 0	 1	-30	 30;
	 167	 61	 0.02041	 0.07165	 0.0075	 68	 68	 68	 0	 0	 1	-30	 30;
	 245	 62	 0.03653	 0.06413	 0.00605	 68	 68	 68	 0	 0	 1	-30	 30;
	 63	 104	 0.01364	 0.03554	 0.0037	 120	 120	 120	 0	 0	 1	-30	 30;
	 63	 179	 0.00851	 0.02174	 0.0022	 120	 120	 120	 0	 0	 1	-30	 30;
	 232	 64	 0.00967	 0.01702	 0.0016	 90	 90	 90	 0	 0	 1	-30	 30;
	 64	 234	 0.0057	 0.01017	 0.00094	 68	 68	 68	 0	 0	 1	-30	 30;
	 65	 66	 0.05504	 0.1643	 0.01682	 68	 68	 68	 0	 0	 1	-30	 30;
	 237	 65	 0.0214	 0.06887	 0.00708	 68	 68	 68	 0	 0	 1	-30	 30;
	 67	 66	 0	 0.0001	 0	 438	 438	 438	 0	 0	 1	-30	 30;
	 116	 66	 0.00926	 0.03008	 0.00307	 119	 119	 119	 0	 0	 1	-30	 30;
	 223	 66	 0.02661	 0.08942	 0.00895	 137	 137	 137	 0	 0	 1	-30	 30;
	 115	 67	 0.00909	 0.02975	 0.00302	 137	 137	 137	 0	 0	 1	-30	 30;
	 69	 68	 0.00909	 0.0281	 0.00288	 133	 133	 133	 0	 0	 1	-30	 30;
	 68	 74	 0.1	 0.1595	 0.01597	 85	 85	 85	 0	 0	 1	-30	 30;
	 68	 142	 0.03587	 0.05868	 0.00646	 90	 90	 90	 0	 0	 1	-30	 30;
	 162	 68	 0.01653	 0.0314	 0.00315	 47	 47	 47	 0	 0	 1	-30	 30;
	 246	 68	 0.00165	 0.00529	 0.00053	 137	 137	 137	 0	 0	 1	-30	 30;
	 157	 69	 0.02041	 0.06612	 0.00678	 95	 95	 95	 0	 0	 1	-30	 30;
	 175	 70	 0.02975	 0.09587	 0.01007	 137	 137	 137	 0	 0	 1	-30	 30;
	 70	 246	 0.00331	 0.01058	 0.00109	 137	 137	 137	 0	 0	 1	-30	 30;
	 71	 101	 0.00562	 0.01893	 0.00189	 32	 32	 32	 0	 0	 1	-30	 30;
	 72	 102	 0.00562	 0.01893	 0.00189	 32	 32	 32	 0	 0	 1	-30	 30;
	 131	 74	 0.00124	 0.00413	 0.00039	 127	 127	 127	 0	 0	 1	-30	 30;
	 74	 149	 0.00793	 0.02231	 0.00215	 122	 122	 122	 0	 0	 1	-30	 30;
	 173	 74	 0.00124	 0.00413	 0.00041	 137	 137	 137	 0	 0	 1	-30	 30;
	 203	 74	 0.05455	 0.18017	 0.0242	 99	 99	 99	 0	 0	 1	-30	 30;
	 75	 77	 0.02074	 0.06727	 0.00682	 137	 137	 137	 0	 0	 1	-30	 30;
	 80	 75	 0.0076	 0.01983	 0.00206	 120	 120	 120	 0	 0	 1	-30	 30;
	 160	 75	 0.01281	 0.02149	 0.00212	 78	 78	 78	 0	 0	 1	-30	 30;
	 174	 75	 0.00124	 0.00413	 0.00041	 137	 137	 137	 0	 0	 1	-30	 30;
	 211	 75	 0.03248	 0.1081	 0.01445	 137	 137	 137	 0	 0	 1	-30	 30;
	 76	 78	 0.01917	 0.02595	 0.00467	 68	 68	 68	 0	 0	 1	-30	 30;
	 164	 76	 0.00504	 0.01686	 0.00174	 137	 137	 137	 0	 0	 1	-30	 30;
	 76	 165	 0.00463	 0.01488	 0.00152	 137	 137	 137	 0	 0	 1	-30	 30;
	 76	 242	 0.00463	 0.01488	 0.00152	 120	 120	 120	 0	 0	 1	-30	 30;
	 149	 77	 0.00132	 0.00421	 0.00044	 137	 137	 137	 0	 0	 1	-30	 30;
	 77	 154	 0.00661	 0.0157	 0.00169	 102	 102	 102	 0	 0	 1	-30	 30;
	 77	 241	 0.00463	 0.01488	 0.00152	 120	 120	 120	 0	 0	 1	-30	 30;
	 176	 78	 0.03587	 0.09008	 0.00924	 114	 114	 114	 0	 0	 1	-30	 30;
	 183	 78	 0.00124	 0.00413	 0.00039	 127	 127	 127	 0	 0	 1	-30	 30;
	 107	 79	 0.0395	 0.06959	 0.00657	 72	 72	 72	 0	 0	 1	-30	 30;
	 108	 79	 0.01149	 0.03471	 0.00293	 120	 120	 120	 0	 0	 1	-30	 30;
	 136	 79	 0.03479	 0.1119	 0.01176	 76	 76	 76	 0	 0	 1	-30	 30;
	 154	 79	 0.01405	 0.03636	 0.00399	 102	 102	 102	 0	 0	 1	-30	 30;
	 79	 202	 0.01496	 0.0438	 0.00445	 114	 114	 114	 0	 0	 1	-30	 30;
	 238	 79	 0.015	 0.04714	 0.00466	 114	 114	 114	 0	 0	 1	-30	 30;
	 205	 80	 0.01545	 0.04603	 0.00472	 120	 120	 120	 0	 0	 1	-30	 30;
	 82	 81	 0	 0.0001	 0	 438	 438	 438	 0	 0	 1	-30	 30;
	 88	 81	 0.00124	 0.00413	 0.00039	 127	 127	 127	 0	 0	 1	-30	 30;
	 81	 214	 0.00099	 0.00347	 0.00036	 137	 137	 137	 0	 0	 1	-30	 30;
	 81	 228	 0.01083	 0.03471	 0.00358	 137	 137	 137	 0	 0	 1	-30	 30;
	 82	 87	 0.00496	 0.01273	 0.00128	 95	 95	 95	 0	 0	 1	-30	 30;
	 82	 206	 0.00124	 0.00413	 0.00039	 127	 127	 127	 0	 0	 1	-30	 30;
	 151	 83	 0.02446	 0.04347	 0.00404	 68	 68	 68	 0	 0	 1	-30	 30;
	 92	 84	 0.00149	 0.00496	 0.00048	 137	 137	 137	 0	 0	 1	-30	 30;
	 84	 93	 0.0057	 0.01818	 0.00189	 137	 137	 137	 0	 0	 1	-30	 30;
	 85	 130	 0.0676	 0.11901	 0.0112	 68	 68	 68	 0	 0	 1	-30	 30;
	 224	 85	 0.03868	 0.0681	 0.00639	 68	 68	 68	 0	 0	 1	-30	 30;
	 86	 103	 0.03967	 0.07157	 0.00641	 68	 68	 68	 0	 0	 1	-30	 30;
	 111	 86	 0.02983	 0.05793	 0.00547	 68	 68	 68	 0	 0	 1	-30	 30;
	 87	 176	 0.00372	 0.00934	 0.00094	 120	 120	 120	 0	 0	 1	-30	 30;
	 206	 88	 0.00124	 0.00413	 0.00039	 127	 127	 127	 0	 0	 1	-30	 30;
	 89	 212	 0.00496	 0.00744	 0.00073	 114	 114	 114	 0	 0	 1	-30	 30;
	 90	 213	 0.00496	 0.00744	 0.00073	 114	 114	 114	 0	 0	 1	-30	 30;
	 91	 164	 0.00909	 0.02893	 0.0029	 137	 137	 137	 0	 0	 1	-30	 30;
	 173	 91	 0.00545	 0.01736	 0.00177	 137	 137	 137	 0	 0	 1	-30	 30;
	 200	 92	 0.00273	 0.00826	 0.00085	 120	 120	 120	 0	 0	 1	-30	 30;
	 95	 93	 0	 0.0001	 0	 438	 438	 438	 0	 0	 1	-30	 30;
	 99	 93	 0.0314	 0.09884	 0.01074	 125	 125	 125	 0	 0	 1	-30	 30;
	 185	 93	 0.00736	 0.0238	 0.00251	 114	 114	 114	 0	 0	 1	-30	 30;
	 119	 94	 0.04025	 0.13025	 0.01336	 106	 106	 106	 0	 0	 1	-30	 30;
	 123	 94	 0.02124	 0.0686	 0.00704	 99	 99	 99	 0	 0	 1	-30	 30;
	 224	 94	 0.04248	 0.11207	 0.01135	 68	 68	 68	 0	 0	 1	-30	 30;
	 119	 95	 0.04	 0.12959	 0.01329	 114	 114	 114	 0	 0	 1	-30	 30;
	 199	 95	 0.0095	 0.02455	 0.00256	 114	 114	 114	 0	 0	 1	-30	 30;
	 163	 97	 0.03669	 0.11669	 0.01251	 68	 68	 68	 0	 0	 1	-30	 30;
	 97	 252	 0.03306	 0.08264	 0.00968	 68	 68	 68	 0	 0	 1	-30	 30;
	 126	 98	 0.00983	 0.01727	 0.00163	 68	 68	 68	 0	 0	 1	-30	 30;
	 141	 98	 0.04669	 0.08182	 0.00774	 90	 90	 90	 0	 0	 1	-30	 30;
	 98	 155	 0.00992	 0.03322	 0.00419	 106	 106	 106	 0	 0	 1	-30	 30;
	 98	 208	 0.02455	 0.07992	 0.00823	 137	 137	 137	 0	 0	 1	-30	 30;
	 102	 101	 0	 0.0001	 0	 438	 438	 438	 0	 0	 1	-30	 30;
	 114	 101	 0.03025	 0.06281	 0.00061	 99	 99	 99	 0	 0	 1	-30	 30;
	 209	 101	 0.0376	 0.12165	 0.01249	 80	 80	 80	 0	 0	 1	-30	 30;
	 239	 101	 0.00736	 0.0238	 0.00244	 89	 89	 89	 0	 0	 1	-30	 30;
	 106	 102	 0.04124	 0.07231	 0.00687	 68	 68	 68	 0	 0	 1	-30	 30;
...
];

mpc_regionR1.gencost = [
%	2           startup     shutdown    n           c(n-1)...c0 
	 2	 0	 0	 3	 0	 146.94	 0;
	 2	 0	 0	 3	 0	 0	 0;
	 2	 0	 0	 3	 0	 0	 0;
	 2	 0	 0	 3	 0	 0	 0;
	 2	 0	 0	 3	 0	 0	 0;
	 2	 0	 0	 3	 0	 0	 0;
	 2	 0	 0	 3	 0	 0	 0;
	 2	 0	 0	 3	 0	 0	 0;
	 2	 0	 0	 3	 0	 0	 0;
	 2	 0	 0	 3	 0	 0	 0;
	 2	 0	 0	 3	 0	 0	 0;
	 2	 0	 0	 3	 0	 0	 0;
	 2	 0	 0	 3	 0	 0	 0;
	 2	 0	 0	 3	 0	 0	 0;
	 2	 0	 0	 3	 0	 0	 0;
	 2	 0	 0	 3	 0	 0	 0;
	 2	 0	 0	 3	 0	 0	 0;
	 2	 0	 0	 3	 0	 0	 0;
	 2	 0	 0	 3	 0	 0	 0;
	 2	 0	 0	 3	 0	 0	 0;
	 2	 0	 0	 3	 0	 0	 0;
	 2	 0	 0	 3	 0	 0	 0;
	 2	 0	 0	 3	 0	 0	 0;
	 2	 0	 0	 3	 0	 0	 0;
	 2	 0	 0	 3	 0	 0	 0;
	 2	 0	 0	 3	 0	 0	 0;
	 2	 0	 0	 3	 0	 0	 0;
	 2	 0	 0	 3	 0	 0	 0;
	 2	 0	 0	 3	 0	 0	 0;
	 2	 0	 0	 3	 0	 0	 0;
	 2	 0	 0	 3	 0	 0	 0;
	 2	 0	 0	 3	 0	 0	 0;
	 2	 0	 0	 3	 0	 0	 0;
	 2	 0	 0	 3	 0	 0	 0;
	 2	 0	 0	 3	 0	 0	 0;
	 2	 0	 0	 3	 0	 0	 0;
	 2	 0	 0	 3	 0	 0	 0;
	 2	 0	 0	 3	 0	 0	 0;
];


% -------------------- mpc_regionR2 --------------------

mpc_regionR2.version = '2';
mpc_regionR2.baseMVA = 100.0000;
mpc_regionR2.bus = [
%	bus_i       type        Pd          Qd          Gs          Bs          area        Vm          Va          baseKV      zone        Vmax        Vmin        
	 1	 1	 0	 0	 0	 0	 1	 1.03	 0	 220	 3	 1.11	 0.95;
	 2	 1	 13.96	 2.02	 0	 0	 1	 1.03	 0	 220	 3	 1.11	 0.95;
	 3	 1	 0	 0	 0	 0	 1	 1.03	 0	 220	 3	 1.11	 0.95;
	 4	 2	 62.97	 92.1	 0	 0	 1	 1	 0	 400	 3	 1.05	 0.95;
	 5	 1	 0	 0	 0	 0	 1	 1.03	 0	 220	 3	 1.11	 0.95;
	 6	 1	 0	 0	 0	 0	 1	 1.03	 0	 220	 3	 1.11	 0.95;
	 7	 2	 18.86	 23.76	 0	 0	 1	 1.03	 0	 220	 3	 1.11	 0.95;
	 8	 2	 35.12	 46.11	 0	 0	 1	 1.03	 0	 220	 3	 1.11	 0.95;
	 9	 2	 7.39	 3.95	 0	 0	 1	 1.035	 0	 110	 3	 1.12	 0.95;
	 10	 1	 0	 0	 0	 0	 1	 1.035	 0	 110	 3	 1.12	 0.95;
	 11	 1	 0	 0	 0	 0	 1	 1.035	 0	 110	 3	 1.12	 0.95;
	 12	 1	 0	 0	 0	 0	 1	 1.035	 0	 110	 3	 1.12	 0.95;
	 13	 1	 13.39	 0	 0	 0	 1	 1.035	 0	 110	 3	 1.12	 0.95;
	 14	 1	 0	 0	 0	 0	 1	 1.035	 0	 110	 3	 1.12	 0.95;
	 15	 1	 0	 0	 0	 0	 1	 1.035	 0	 110	 3	 1.12	 0.95;
	 16	 1	 3.96	 1.05	 0	 0	 1	 1.035	 0	 110	 3	 1.12	 0.95;
	 17	 1	 0	 0	 0	 0	 1	 1.035	 0	 110	 3	 1.12	 0.95;
	 18	 1	 1.46	 0.88	 0	 0	 1	 1.035	 0	 110	 3	 1.12	 0.95;
	 19	 2	 31.67	 21.04	 0	 0	 1	 1.035	 0	 110	 3	 1.12	 0.95;
	 20	 1	 8.79	 0	 0	 0	 1	 1.035	 0	 110	 3	 1.12	 0.95;
	 21	 1	 0	 0	 0	 0	 1	 1.035	 0	 110	 3	 1.12	 0.95;
	 22	 1	 14.79	 1.05	 0	 0	 1	 1.035	 0	 110	 3	 1.12	 0.95;
	 23	 1	 11.46	 5.79	 0	 0	 1	 1.035	 0	 110	 3	 1.12	 0.95;
	 24	 1	 4.59	 0.44	 0	 0	 1	 1.035	 0	 110	 3	 1.12	 0.95;
	 25	 1	 13.75	 2.89	 0	 0	 1	 1.035	 0	 110	 3	 1.12	 0.95;
	 26	 1	 9.37	 1.75	 0	 0	 1	 1.035	 0	 110	 3	 1.12	 0.95;
	 27	 1	 8.12	 1.84	 0	 0	 1	 1.035	 0	 110	 3	 1.12	 0.95;
	 28	 1	 0	 0	 0	 0	 1	 1.035	 0	 110	 3	 1.12	 0.95;
	 29	 1	 13.44	 0.61	 0	 0	 1	 1.035	 0	 110	 3	 1.12	 0.95;
	 30	 1	 8.02	 2.02	 0	 0	 1	 1.035	 0	 110	 3	 1.12	 0.95;
	 31	 1	 0.83	 0.7	 0	 0	 1	 1.035	 0	 110	 3	 1.12	 0.95;
	 32	 2	 16.25	 8.77	 0	 0	 1	 1.035	 0	 110	 3	 1.12	 0.95;
	 33	 1	 1.25	 0.26	 0	 0	 1	 1.035	 0	 110	 3	 1.12	 0.95;
	 34	 1	 0	 0	 0	 0	 1	 1.035	 0	 110	 3	 1.12	 0.95;
	 35	 2	 23.33	 10.78	 0	 0	 1	 1.035	 0	 110	 3	 1.12	 0.95;
	 36	 1	 1.04	 0.44	 0	 0	 1	 1.035	 0	 110	 3	 1.12	 0.95;
	 37	 2	 36.46	 47.78	 0	 0	 1	 1.035	 0	 110	 3	 1.12	 0.95;
	 38	 2	 41.99	 46.38	 0	 0	 1	 1.035	 0	 110	 3	 1.12	 0.95;
	 39	 1	 10.73	 0.44	 0	 0	 1	 1.035	 0	 110	 3	 1.12	 0.95;
	 40	 2	 33.24	 11.05	 0	 0	 1	 1.035	 0	 110	 3	 1.12	 0.95;
	 41	 1	 0	 0	 0	 0	 1	 1.035	 0	 110	 3	 1.12	 0.95;
	 42	 1	 0	 0	 0	 0	 1	 1.035	 0	 110	 3	 1.12	 0.95;
	 43	 1	 0.4	 0	 0	 0	 1	 1.035	 0	 110	 3	 1.12	 0.95;
	 44	 1	 0.42	 0.61	 0	 0	 1	 1.035	 0	 110	 3	 1.12	 0.95;
	 45	 1	 0.73	 0.79	 0	 0	 1	 1.035	 0	 110	 3	 1.12	 0.95;
	 46	 1	 10.1	 1.14	 0	 0	 1	 1.035	 0	 110	 3	 1.12	 0.95;
	 47	 1	 1.04	 0.61	 0	 0	 1	 1.035	 0	 110	 3	 1.12	 0.95;
	 48	 1	 3.65	 0.26	 0	 0	 1	 1.035	 0	 110	 3	 1.12	 0.95;
	 49	 1	 10.52	 4.38	 0	 0	 1	 1.035	 0	 110	 3	 1.12	 0.95;
	 50	 1	 9.06	 2.19	 0	 0	 1	 1.035	 0	 110	 3	 1.12	 0.95;
	 51	 2	 10.62	 4.03	 0	 0	 1	 1.035	 0	 110	 3	 1.12	 0.95;
	 52	 1	 8.96	 0.79	 0	 0	 1	 1.035	 0	 110	 3	 1.12	 0.95;
	 53	 1	 2.82	 1.05	 0	 0	 1	 1.035	 0	 110	 3	 1.12	 0.95;
	 54	 1	 9.89	 0	 0	 0	 1	 1.035	 0	 110	 3	 1.12	 0.95;
	 55	 1	 12.81	 4.12	 0	 0	 1	 1.035	 0	 110	 3	 1.12	 0.95;
	 56	 1	 0	 0	 0	 0	 1	 1.035	 0	 110	 3	 1.12	 0.95;
	 57	 1	 0	 0	 0	 0	 1	 1.035	 0	 110	 3	 1.12	 0.95;
	 58	 1	 0	 0	 0	 0	 1	 1.035	 0	 110	 3	 1.12	 0.95;
	 59	 1	 0	 0	 0	 0	 1	 1.035	 0	 110	 3	 1.12	 0.95;
	 60	 1	 0	 0	 0	 0	 1	 1.035	 0	 110	 3	 1.12	 0.95;
	 61	 1	 0	 0	 0	 0	 1	 1.035	 0	 110	 3	 1.12	 0.95;
	 62	 2	 8.33	 1.05	 0	 0	 1	 1.035	 0	 110	 3	 1.12	 0.95;
	 63	 2	 7.18	 1.49	 0	 0	 1	 1.035	 0	 110	 3	 1.12	 0.95;
	 64	 2	 3.44	 3.42	 0	 0	 1	 1.035	 0	 110	 3	 1.12	 0.95;
	 65	 1	 7.69	 0	 0	 0	 1	 1.035	 0	 110	 3	 1.12	 0.95;
	 66	 1	 14.06	 4.03	 0	 0	 1	 1.035	 0	 110	 3	 1.12	 0.95;
	 67	 1	 66.03	 18.41	 0	 0	 1	 1.035	 0	 110	 3	 1.12	 0.95;
	 68	 1	 0	 0	 0	 0	 1	 1.035	 0	 110	 3	 1.12	 0.95;
	 69	 2	 19.59	 3.24	 0	 0	 1	 1.035	 0	 110	 3	 1.12	 0.95;
	 70	 1	 0	 0	 0	 0	 1	 1.035	 0	 110	 3	 1.12	 0.95;
	 71	 1	 1.98	 0.88	 0	 0	 1	 1.035	 0	 110	 3	 1.12	 0.95;
	 72	 1	 18.24	 3.16	 0	 0	 1	 1.035	 0	 110	 3	 1.12	 0.95;
	 73	 1	 18.34	 4.91	 0	 0	 1	 1.035	 0	 110	 3	 1.12	 0.95;
	 74	 1	 5.94	 2.02	 0	 0	 1	 1.035	 0	 110	 3	 1.12	 0.95;
	 75	 1	 1.04	 0.09	 0	 0	 1	 1.035	 0	 110	 3	 1.12	 0.95;
	 76	 1	 0	 0	 0	 0	 1	 1.035	 0	 110	 3	 1.12	 0.95;
	 77	 1	 0	 0	 0	 0	 1	 1.035	 0	 110	 3	 1.12	 0.95;
	 78	 1	 1.25	 1.05	 0	 0	 1	 1.035	 0	 110	 3	 1.12	 0.95;
	 79	 1	 7.7	 0.61	 0	 0	 1	 1.035	 0	 110	 3	 1.12	 0.95;
	 80	 1	 14.38	 3.51	 0	 0	 1	 1.035	 0	 110	 3	 1.12	 0.95;
	 81	 1	 6.15	 1.23	 0	 0	 1	 1.035	 0	 110	 3	 1.12	 0.95;
	 82	 1	 3.13	 1.58	 0	 0	 1	 1.035	 0	 110	 3	 1.12	 0.95;
	 83	 1	 0	 0	 0	 0	 1	 1.035	 0	 110	 3	 1.12	 0.95;
	 84	 1	 6.78	 1.4	 0	 0	 1	 1.035	 0	 110	 3	 1.12	 0.95;
	 85	 1	 17.71	 2.19	 0	 0	 1	 1.035	 0	 110	 3	 1.12	 0.95;
	 86	 1	 9.58	 2.81	 0	 0	 1	 1.035	 0	 110	 3	 1.12	 0.95;
	 87	 1	 11.67	 1.75	 0	 0	 1	 1.035	 0	 110	 3	 1.12	 0.95;
	 88	 2	 64.88	 19.2	 0	 0	 1	 1.035	 0	 110	 3	 1.12	 0.95;
	 89	 1	 10.42	 2.02	 0	 0	 1	 1.035	 0	 110	 3	 1.12	 0.95;
	 90	 1	 11.09	 0	 0	 0	 1	 1.035	 0	 110	 3	 1.12	 0.95;
	 91	 1	 0	 0	 0	 0	 1	 1.035	 0	 110	 3	 1.12	 0.95;
	 92	 2	 16.88	 11.92	 0	 0	 1	 1.035	 0	 110	 3	 1.12	 0.95;
	 93	 1	 11.56	 1.93	 0	 0	 1	 1.035	 0	 110	 3	 1.12	 0.95;
	 94	 1	 0	 0	 0	 0	 1	 1.035	 0	 110	 3	 1.12	 0.95;
	 95	 1	 0	 0	 0	 0	 1	 1.035	 0	 110	 3	 1.12	 0.95;
	 96	 1	 10.31	 3.16	 0	 0	 1	 1.035	 0	 110	 3	 1.12	 0.95;
	 97	 2	 33.13	 10.35	 0	 0	 1	 1.035	 0	 110	 3	 1.12	 0.95;
	 98	 1	 6.6	-1.75	 0	 0	 1	 1.035	 0	 110	 3	 1.12	 0.95;
	 99	 1	 2.3	-1.75	 0	 0	 1	 1.035	 0	 110	 3	 1.12	 0.95;
	 100	 2	 10.73	 12.8	 0	 0	 1	 1.035	 0	 110	 3	 1.12	 0.95;
	 101	 1	 0	 0	 0	 0	 1	 1.035	 0	 110	 3	 1.12	 0.95;
	 102	 1	 16.46	 2.1	 0	 0	 1	 1.035	 0	 110	 3	 1.12	 0.95;
	 103	 1	 26.36	 9.38	 0	 0	 1	 1.035	 0	 110	 3	 1.12	 0.95;
	 104	 1	 0	 0	 0	 0	 1	 1.035	 0	 110	 3	 1.12	 0.95;
	 105	 1	 14.06	 1.84	 0	 0	 1	 1.035	 0	 110	 3	 1.12	 0.95;
	 106	 1	 8.02	 0.26	 0	 0	 1	 1.035	 0	 110	 3	 1.12	 0.95;
	 107	 1	 11.56	 3.68	 0	 0	 1	 1.035	 0	 110	 3	 1.12	 0.95;
	 108	 1	 0	 0	 0	 0	 1	 1.035	 0	 110	 3	 1.12	 0.95;
	 109	 1	 15.94	 2.02	 0	 0	 1	 1.035	 0	 110	 3	 1.12	 0.95;
	 110	 1	 24.27	 8.07	 0	 0	 1	 1.035	 0	 110	 3	 1.12	 0.95;
	 111	 1	 13.65	 3.24	 0	 0	 1	 1.035	 0	 110	 3	 1.12	 0.95;
	 112	 1	 9.27	 0.7	 0	 0	 1	 1.035	 0	 110	 3	 1.12	 0.95;
	 113	 1	 9.37	 0.61	 0	 0	 1	 1.035	 0	 110	 3	 1.12	 0.95;
	 114	 1	 0	 0	 0	 0	 1	 1.035	 0	 110	 3	 1.12	 0.95;
	 115	 1	 0	 0	 0	 0	 1	 1.035	 0	 110	 3	 1.12	 0.95;
	 116	 1	 17.09	 0	 0	 0	 1	 1.035	 0	 110	 3	 1.12	 0.95;
	 117	 1	 0	 0	 0	 0	 1	 1.035	 0	 110	 3	 1.12	 0.95;
	 118	 1	 0	 0	 0	 0	 1	 1.035	 0	 110	 3	 1.12	 0.95;
	 119	 1	 0	 0	 0	 0	 1	 1.035	 0	 110	 3	 1.12	 0.95;
	 120	 1	 16.25	 2.63	 0	 0	 1	 1.035	 0	 110	 3	 1.12	 0.95;
	 121	 1	 9.37	 0.79	 0	 0	 1	 1.035	 0	 110	 3	 1.12	 0.95;
	 122	 1	 3.13	 1.23	 0	 0	 1	 1.035	 0	 110	 3	 1.12	 0.95;
	 123	 2	 4.8	 0.35	 0	 0	 1	 1.035	 0	 110	 3	 1.12	 0.95;
	 124	 1	 3.54	 2.02	 0	 0	 1	 1.035	 0	 110	 3	 1.12	 0.95;
	 125	 1	 0	 0	 0	 0	 1	 1.035	 0	 110	 3	 1.12	 0.95;
	 126	 1	 0	 0	 0	 0	 1	 1.035	 0	 110	 3	 1.12	 0.95;
	 127	 1	 21.77	 7.8	 0	 0	 1	 1.035	 0	 110	 3	 1.12	 0.95;
	 128	 1	 2.29	 0.88	 0	 0	 1	 1.035	 0	 110	 3	 1.12	 0.95;
	 129	 1	 8.02	 4.12	 0	 0	 1	 1.035	 0	 110	 3	 1.12	 0.95;
	 130	 1	 31.05	 4.91	 0	 0	 1	 1.035	 0	 110	 3	 1.12	 0.95;
	 131	 1	 16.79	 0	 0	 0	 1	 1.035	 0	 110	 3	 1.12	 0.95;
	 132	 1	 4.59	 0.79	 0	 0	 1	 1.035	 0	 110	 3	 1.12	 0.95;
	 133	 2	 17.82	 2.63	 0	 0	 1	 1.035	 0	 110	 3	 1.12	 0.95;
	 134	 2	 21.05	 7.28	 0	 0	 1	 1.035	 0	 110	 3	 1.12	 0.95;
	 135	 1	 10	 3.24	 0	 0	 1	 1.035	 0	 110	 3	 1.12	 0.95;
	 136	 1	 0	 0	 0	 0	 1	 1.035	 0	 110	 3	 1.12	 0.95;
	 137	 1	 9.69	 2.02	 0	 0	 1	 1.035	 0	 110	 3	 1.12	 0.95;
	 138	 1	 9.27	 0.7	 0	 0	 1	 1.035	 0	 110	 3	 1.12	 0.95;
	 139	 1	 0	 0	 0	 0	 1	 1.035	 0	 110	 3	 1.12	 0.95;
	 140	 1	 0	 0	 0	 0	 1	 1.035	 0	 110	 3	 1.12	 0.95;
	 141	 1	 0	 0	 0	 0	 1	 1.035	 0	 110	 3	 1.12	 0.95;
	 142	 1	 4.27	 1.58	 0	 0	 1	 1.035	 0	 110	 3	 1.12	 0.95;
	 143	 1	 0	 0	 0	 0	 1	 1.035	 0	 110	 3	 1.12	 0.95;
	 144	 1	 5.42	 0.35	 0	 0	 1	 1.035	 0	 110	 3	 1.12	 0.95;
	 145	 1	 5.42	 2.02	 0	 0	 1	 1.035	 0	 110	 3	 1.12	 0.95;
	 146	 1	 1.4	 0	 0	 0	 1	 1.035	 0	 110	 3	 1.12	 0.95;
	 147	 1	 11.46	 3.16	 0	 0	 1	 1.035	 0	 110	 3	 1.12	 0.95;
	 148	 1	 24.06	 7.98	 0	 0	 1	 1.035	 0	 110	 3	 1.12	 0.95;
	 149	 1	 3.54	 1.58	 0	 0	 1	 1.035	 0	 110	 3	 1.12	 0.95;
	 150	 1	 3.54	 0.79	 0	 0	 1	 1.035	 0	 110	 3	 1.12	 0.95;
	 151	 1	 20.53	 9.56	 0	 0	 1	 1.035	 0	 110	 3	 1.12	 0.95;
	 152	 2	 12.29	 5.08	 0	 0	 1	 1.035	 0	 110	 3	 1.12	 0.95;
	 153	 1	 15.32	 1.14	 0	 0	 1	 1.035	 0	 110	 3	 1.12	 0.95;
	 154	 1	 8.43	 4.91	 0	 0	 1	 1.035	 0	 110	 3	 1.12	 0.95;
	 155	 1	 3.86	 0.7	 0	 0	 1	 1.035	 0	 110	 3	 1.12	 0.95;
	 156	 1	 16.78	 0.79	 0	 0	 1	 1.035	 0	 110	 3	 1.12	 0.95;
	 157	 1	 3.54	 2.1	 0	 0	 1	 1.035	 0	 110	 3	 1.12	 0.95;
	 158	 1	 8.96	 1.14	 0	 0	 1	 1.035	 0	 110	 3	 1.12	 0.95;
	 159	 1	 15.42	 4.73	 0	 0	 1	 1.035	 0	 110	 3	 1.12	 0.95;
	 160	 2	 17.71	 21.22	 0	 0	 1	 1.035	 0	 110	 3	 1.12	 0.95;
	 161	 2	 18.55	 21.13	 0	 0	 1	 1.035	 0	 110	 3	 1.12	 0.95;
	 162	 1	 9.06	 1.93	 0	 0	 1	 1.035	 0	 110	 3	 1.12	 0.95;
	 163	 1	 24.06	 4.3	 0	 0	 1	 1.035	 0	 110	 3	 1.12	 0.95;
	 164	 1	 0	 0	 0	 0	 1	 1.035	 0	 110	 3	 1.12	 0.95;
	 165	 1	 0	 0	 0	 0	 1	 1.035	 0	 110	 3	 1.12	 0.95;
	 166	 1	 0	 0	 0	 0	 1	 1.035	 0	 110	 3	 1.12	 0.95;
	 167	 1	 27.92	 2.1	 0	 0	 1	 1.035	 0	 110	 3	 1.12	 0.95;
	 168	 1	 0	 0	 0	 0	 1	 1.035	 0	 110	 3	 1.12	 0.95;
	 169	 1	 13.44	 9.12	 0	 0	 1	 1.035	 0	 110	 3	 1.12	 0.95;
	 170	 1	 8.02	 2.28	 0	 0	 1	 1.035	 0	 110	 3	 1.12	 0.95;
	 171	 1	 0	 0	 0	 0	 1	 1.035	 0	 110	 3	 1.12	 0.95;
	 172	 2	 36.36	 12.36	 0	 0	 1	 1.035	 0	 110	 3	 1.12	 0.95;
	 173	 1	 5.63	 2.98	 0	 0	 1	 1.035	 0	 110	 3	 1.12	 0.95;
	 174	 1	 0	 0	 0	 0	 1	 1.035	 0	 110	 3	 1.12	 0.95;
	 175	 1	 10	 1.75	 0	 0	 1	 1.035	 0	 110	 3	 1.12	 0.95;
	 176	 1	 0	 0	 0	 0	 1	 1.035	 0	 110	 3	 1.12	 0.95;
	 177	 1	 0	 0	 0	 0	 1	 1.035	 0	 110	 3	 1.12	 0.95;
	 178	 1	 26.93	 8.9	 0	 0	 1	 1.035	 0	 110	 4	 1.12	 0.95;
	 179	 1	 0	 0	 0	 0	 1	 1.035	 0	 110	 4	 1.12	 0.95;
	 180	 1	 5.73	 1.6	 0	 0	 1	 1.035	 0	 110	 4	 1.12	 0.95;
	 181	 1	 0	 0	 0	 0	 1	 1.035	 0	 110	 4	 1.12	 0.95;
	 182	 1	 4.29	-1	 0	 0	 1	 1.035	 0	 110	 4	 1.12	 0.95;
	 183	 2	 12.61	 2.5	 0	 0	 1	 1.035	 0	 110	 4	 1.12	 0.95;
	 184	 1	 0	 0	 0	 0	 1	 1.035	 0	 110	 4	 1.12	 0.95;
	 185	 1	 0	 0	 0	 0	 1	 1.035	 0	 110	 4	 1.12	 0.95;
];

mpc_regionR2.gen = [
%	bus         Pg          Qg          Qmax        Qmin        Vg          mBase       status      Pmax        Pmin        Pc1         Pc2         Qc1min      Qc1max      Qc2min      Qc2max      ramp_agc    ramp_10     ramp_30     ramp_q      apf         
	 4	 209.5	 14.5	 449	-420	 1	 864	 1	 309	 110;
	 7	 142.5	 37	 177	-103	 1.03	 239	 1	 205	 80;
	 8	 190.5	 101	 379	-177	 1.03	 490	 1	 311	 70;
	 9	 49.71	 0	 49	-49	 1.035	 4	 1	 98	 1.42;
	 19	 90.25	 0	 85	-85	 1.035	 110	 1	 169	 11.5;
	 32	 45.1275	 0	 43	-43	 1.035	 11	 1	 86	 4.255;
	 35	 82.875	 0	 82	-82	 1.035	 4	 1	 164	 1.75;
	 37	 450	 0	 380	-380	 1.035	 415	 1	 760	 140;
	 38	 227.5	 33	 224	-158	 1.035	 415	 1	 315	 140;
	 40	 62.2825	 0	 59	-59	 1.035	 19	 1	 117	 7.565;
	 51	 23.6675	 0	 24	-24	 1.035	 1	 1	 47	 0.335;
	 62	 30.445	 0	 30	-30	 1.035	 5	 1	 59	 1.89;
	 63	 16.4725	 0	 16	-16	 1.035	 2	 1	 32	 0.945;
	 64	 77	 0	 72	-72	 1.035	 60	 1	 144	 10;
	 69	 14.525	 0	 15	-15	 1.035	 0	 1	 29	 0.05;
	 88	 111.9875	 0	 103	-103	 1.035	 45	 1	 206	 17.975;
	 92	 109.5	 17.5	 125	-90	 1.035	 123	 1	 179	 40;
	 97	 48.4925	 0	 44	-44	 1.035	 23	 1	 88	 8.985;
	 100	 69.7825	 0	 66	-66	 1.035	 19	 1	 132	 7.565;
	 123	 4.7375	 0	 5	-5	 1.035	 1	 1	 9	 0.475;
	 133	 63.855	 0	 64	-64	 1.035	 2	 1	 127	 0.71;
	 134	 56.7375	 0	 57	-57	 1.035	 1	 1	 113	 0.475;
	 152	 47.9975	 0	 48	-48	 1.035	 3	 1	 95	 0.995;
	 160	 146.5	 41.5	 190	-107	 1.035	 251	 1	 213	 80;
	 161	 89.5	 50.5	 190	-89	 1.035	 255	 1	 144	 35;
	 172	 219.6375	 0	 205	-205	 1.035	 77	 1	 409	 30.275;
	 183	 35.12	 0	 35	-35	 1.035	 1	 1	 70	 0.24;
];

mpc_regionR2.branch = [
%	fbus        tbus        r           x           b           rateA       rateB       rateC       ratio       angle       status      angmin      angmax      
	 8	 1	 0.00599	 0.04091	 0.07212	 464	 464	 464	 0	 0	 1	-30	 30;
	 19	 1	 0.00145	 0.06921	-0.00532	 160	 160	 160	 0.9936	 0	 1	-30	 30;
	 6	 2	 0.00785	 0.04132	 0.06389	 394	 394	 394	 0	 0	 1	-30	 30;
	 3	 4	 0.00031	 0.02094	 0	 500	 500	 500	 1.0616	 0	 1	-30	 30;
	 3	 5	 0.00248	 0.02355	 0.04763	 457	 457	 457	 0	 0	 1	-30	 30;
	 37	 4	 0.00156	 0.06269	-0.00992	 250	 250	 250	 1.0656	 0	 1	-30	 30;
	 38	 4	 0.00156	 0.06269	-0.00992	 250	 250	 250	 1.066	 0	 1	-30	 30;
	 53	 5	 0.00165	 0.06694	-0.0031	 160	 160	 160	 1.0083	 0	 1	-30	 30;
	 54	 5	 0.00145	 0.06653	-0.00319	 160	 160	 160	 1.006	 0	 1	-30	 30;
	 8	 6	 0.00455	 0.0314	 0.05489	 464	 464	 464	 0	 0	 1	-30	 30;
	 97	 6	 0.00145	 0.06756	-0.00348	 160	 160	 160	 1	 0	 1	-30	 30;
	 8	 7	 0	 0.0001	 0	 876	 876	 876	 0	 0	 1	-30	 30;
	 160	 7	 0.00145	 0.0686	-0.00232	 160	 160	 160	 1.0043	 0	 1	-30	 30;
	 161	 8	 0.00165	 0.06818	-0.0029	 160	 160	 160	 1.004	 0	 1	-30	 30;
	 10	 9	 0	 0.0001	 0	 438	 438	 438	 0	 0	 1	-30	 30;
	 82	 9	 0	 0.00083	 0.00012	 114	 114	 114	 0	 0	 1	-30	 30;
	 86	 9	 0.0124	 0.03967	 0.00428	 140	 140	 140	 0	 0	 1	-30	 30;
	 9	 114	 0.00083	 0.00248	 0.00031	 140	 140	 140	 0	 0	 1	-30	 30;
	 10	 64	 0.01405	 0.0438	 0.00489	 140	 140	 140	 0	 0	 1	-30	 30;
	 83	 10	 0	 0.00165	 0.00017	 114	 114	 114	 0	 0	 1	-30	 30;
	 10	 115	 0.00083	 0.00248	 0.00031	 140	 140	 140	 0	 0	 1	-30	 30;
	 11	 134	 0.00083	 0.00248	 0.00027	 114	 114	 114	 0	 0	 1	-30	 30;
	 12	 134	 0.00083	 0.00248	 0.00024	 114	 114	 114	 0	 0	 1	-30	 30;
	 13	 177	 0	 0.00083	 0.00012	 114	 114	 114	 0	 0	 1	-30	 30;
	 14	 15	 0	 0.00083	 0.0001	 140	 140	 140	 0	 0	 1	-30	 30;
	 15	 129	 0.01074	 0.0281	 0.00397	 120	 120	 120	 0	 0	 1	-30	 30;
	 15	 154	 0.00579	 0.02066	 0.00203	 140	 140	 140	 0	 0	 1	-30	 30;
	 17	 16	 0.01653	 0.02727	 0.00295	 19	 19	 19	 0	 0	 1	-30	 30;
	 17	 46	 0.01818	 0.05455	 0.00649	 57	 57	 57	 0	 0	 1	-30	 30;
	 62	 17	 0.01405	 0.03884	 0.00431	 57	 57	 57	 0	 0	 1	-30	 30;
	 18	 37	 0.00413	 0.01488	 0.00143	 114	 114	 114	 0	 0	 1	-30	 30;
	 132	 18	 0.03306	 0.05702	 0.00615	 90	 90	 90	 0	 0	 1	-30	 30;
	 29	 19	 0.0281	 0.07025	 0.00789	 120	 120	 120	 0	 0	 1	-30	 30;
	 61	 19	 0.03223	 0.10248	 0.01125	 120	 120	 120	 0	 0	 1	-30	 30;
	 88	 19	 0.01488	 0.04463	 0.00523	 120	 120	 120	 0	 0	 1	-30	 30;
	 91	 19	 0.01488	 0.0405	 0.00465	 90	 90	 90	 0	 0	 1	-30	 30;
	 151	 19	 0.02479	 0.06116	 0.00682	 120	 120	 120	 0	 0	 1	-30	 30;
	 21	 20	 0.02645	 0.03636	 0.00317	 57	 57	 57	 0	 0	 1	-30	 30;
	 133	 20	 0.01818	 0.05785	 0.00593	 57	 57	 57	 0	 0	 1	-30	 30;
	 21	 30	 0.07107	 0.12727	 0.01229	 57	 57	 57	 0	 0	 1	-30	 30;
	 166	 21	 0.0124	 0.02397	 0.00206	 57	 57	 57	 0	 0	 1	-30	 30;
	 73	 22	 0.00579	 0.01736	 0.00213	 140	 140	 140	 0	 0	 1	-30	 30;
	 22	 129	 0.00826	 0.02727	 0.0029	 140	 140	 140	 0	 0	 1	-30	 30;
	 161	 22	 0.02397	 0.07603	 0.00825	 140	 140	 140	 0	 0	 1	-30	 30;
	 164	 23	 0.00992	 0.02479	 0.00283	 120	 120	 120	 0	 0	 1	-30	 30;
	 23	 174	 0.00331	 0.00992	 0.00114	 140	 140	 140	 0	 0	 1	-30	 30;
	 24	 87	 0.02479	 0.06529	 0.00661	 120	 120	 120	 0	 0	 1	-30	 30;
	 111	 24	 0.02231	 0.05455	 0.00622	 120	 120	 120	 0	 0	 1	-30	 30;
	 165	 25	 0.01488	 0.03388	 0.00421	 120	 120	 120	 0	 0	 1	-30	 30;
	 26	 28	 0.00496	 0.01405	 0.00167	 114	 114	 114	 0	 0	 1	-30	 30;
	 108	 27	 0.00496	 0.0157	 0.00157	 140	 140	 140	 0	 0	 1	-30	 30;
	 31	 28	 0	 0.00083	 2e-05	 114	 114	 114	 0	 0	 1	-30	 30;
	 28	 40	 0.01322	 0.04298	 0.00465	 140	 140	 140	 0	 0	 1	-30	 30;
	 112	 29	 0.02645	 0.06612	 0.00733	 120	 120	 120	 0	 0	 1	-30	 30;
	 30	 91	 0.03719	 0.07521	 0.00663	 90	 90	 90	 0	 0	 1	-30	 30;
	 64	 31	 0.00744	 0.02314	 0.00271	 140	 140	 140	 0	 0	 1	-30	 30;
	 58	 32	 0.00083	 0.00331	 0.00034	 140	 140	 140	 0	 0	 1	-30	 30;
	 145	 32	 0.00661	 0.02149	 0.00208	 140	 140	 140	 0	 0	 1	-30	 30;
	 33	 34	 0	 0.00083	 0	 57	 57	 57	 0	 0	 1	-30	 30;
	 34	 109	 0.03636	 0.05041	 0.0083	 57	 57	 57	 0	 0	 1	-30	 30;
	 184	 34	 0.02149	 0.02727	 0.00511	 57	 57	 57	 0	 0	 1	-30	 30;
	 48	 35	 0.01074	 0.02397	 0.00336	 120	 120	 120	 0	 0	 1	-30	 30;
	 35	 165	 0.00331	 0.00826	 0.0009	 120	 120	 120	 0	 0	 1	-30	 30;
	 72	 36	 0.00579	 0.00992	 0.00211	 120	 120	 120	 0	 0	 1	-30	 30;
	 98	 36	 0.01157	 0.03554	 0.00387	 120	 120	 120	 0	 0	 1	-30	 30;
	 37	 54	 0.00992	 0.0686	 0.00765	 232	 232	 232	 0	 0	 1	-30	 30;
	 37	 153	 0.00579	 0.0405	 0.00453	 232	 232	 232	 0	 0	 1	-30	 30;
	 38	 50	 0.00909	 0.04132	 0.00457	 114	 114	 114	 0	 0	 1	-30	 30;
	 70	 38	 0.05124	 0.16198	 0.01788	 114	 114	 114	 0	 0	 1	-30	 30;
	 111	 38	 0.03471	 0.11074	 0.01162	 114	 114	 114	 0	 0	 1	-30	 30;
	 112	 38	 0.03471	 0.11074	 0.01164	 114	 114	 114	 0	 0	 1	-30	 30;
	 144	 38	 0.01488	 0.04628	 0.00508	 114	 114	 114	 0	 0	 1	-30	 30;
	 38	 167	 0.00331	 0.02231	 0.00249	 114	 114	 114	 0	 0	 1	-30	 30;
	 150	 39	 0.02645	 0.06364	 0.00726	 57	 57	 57	 0	 0	 1	-30	 30;
	 168	 39	 0.01983	 0.05124	 0.00588	 57	 57	 57	 0	 0	 1	-30	 30;
	 104	 40	 0.00248	 0.00744	 0.00085	 140	 140	 140	 0	 0	 1	-30	 30;
	 41	 43	 0	 0.00083	 7e-05	 114	 114	 114	 0	 0	 1	-30	 30;
	 42	 43	 0	 0.00083	 7e-05	 114	 114	 114	 0	 0	 1	-30	 30;
	 43	 79	 0.00496	 0.01488	 0.00179	 140	 140	 140	 0	 0	 1	-30	 30;
	 43	 176	 0.00413	 0.0124	 0.0015	 140	 140	 140	 0	 0	 1	-30	 30;
	 44	 54	 0.00165	 0.00248	 0.00024	 57	 57	 57	 0	 0	 1	-30	 30;
	 45	 53	 0.00165	 0.00248	 0.00024	 57	 57	 57	 0	 0	 1	-30	 30;
	 46	 51	 0.01488	 0.0438	 0.00523	 57	 57	 57	 0	 0	 1	-30	 30;
	 47	 48	 0.00165	 0.00579	 0.00065	 28	 28	 28	 0	 0	 1	-30	 30;
	 105	 48	 0.00248	 0.00661	 0.00077	 114	 114	 114	 0	 0	 1	-30	 30;
	 53	 49	 0.01157	 0.03636	 0.00382	 114	 114	 114	 0	 0	 1	-30	 30;
	 171	 49	 0.02314	 0.07273	 0.00774	 57	 57	 57	 0	 0	 1	-30	 30;
	 50	 52	 0.00661	 0.01983	 0.0022	 114	 114	 114	 0	 0	 1	-30	 30;
	 54	 51	 0.06364	 0.12975	 0.01268	 90	 90	 90	 0	 0	 1	-30	 30;
	 70	 51	 0.04711	 0.08926	 0.00871	 57	 57	 57	 0	 0	 1	-30	 30;
	 158	 51	 0.01322	 0.0405	 0.00482	 57	 57	 57	 0	 0	 1	-30	 30;
	 54	 52	 0.00661	 0.02149	 0.00225	 114	 114	 114	 0	 0	 1	-30	 30;
	 155	 52	 0.00248	 0.00744	 0.00075	 57	 57	 57	 0	 0	 1	-30	 30;
	 156	 52	 0.00248	 0.00744	 0.00075	 57	 57	 57	 0	 0	 1	-30	 30;
	 65	 53	 0.01653	 0.05207	 0.00559	 140	 140	 140	 0	 0	 1	-30	 30;
	 53	 69	 0.09669	 0.19504	 0.01788	 90	 90	 90	 0	 0	 1	-30	 30;
	 111	 53	 0.03884	 0.07603	 0.00661	 114	 114	 114	 0	 0	 1	-30	 30;
	 125	 53	 0.03471	 0.07355	 0.0068	 90	 90	 90	 0	 0	 1	-30	 30;
	 153	 53	 0.00496	 0.0314	 0.00358	 152	 152	 152	 0	 0	 1	-30	 30;
	 126	 54	 0.03471	 0.07355	 0.0068	 90	 90	 90	 0	 0	 1	-30	 30;
	 54	 157	 0.01157	 0.03471	 0.0039	 114	 114	 114	 0	 0	 1	-30	 30;
	 57	 55	 0.00248	 0.00496	 0.0007	 90	 90	 90	 0	 0	 1	-30	 30;
	 58	 56	 0.00165	 0.00413	 0.00046	 140	 140	 140	 0	 0	 1	-30	 30;
	 72	 57	 0.00579	 0.01074	 0.00223	 120	 120	 120	 0	 0	 1	-30	 30;
	 57	 118	 0.00248	 0.00413	 0.00077	 120	 120	 120	 0	 0	 1	-30	 30;
	 119	 58	 0.00165	 0.00413	 0.00053	 140	 140	 140	 0	 0	 1	-30	 30;
	 59	 60	 0.00248	 0.00744	 0.00085	 114	 114	 114	 0	 0	 1	-30	 30;
	 60	 64	 0.00744	 0.02314	 0.00242	 120	 120	 120	 0	 0	 1	-30	 30;
	 81	 60	 0	 0.00083	 0.00012	 114	 114	 114	 0	 0	 1	-30	 30;
	 157	 61	 0.01736	 0.05289	 0.00593	 114	 114	 114	 0	 0	 1	-30	 30;
	 63	 62	 0	 0.0001	 0	 438	 438	 438	 0	 0	 1	-30	 30;
	 63	 109	 0.01488	 0.02479	 0.00356	 57	 57	 57	 0	 0	 1	-30	 30;
	 143	 63	 0.03058	 0.06033	 0.00525	 57	 57	 57	 0	 0	 1	-30	 30;
	 141	 64	 0.00909	 0.02727	 0.00312	 114	 114	 114	 0	 0	 1	-30	 30;
	 167	 65	 0.00331	 0.01074	 0.00121	 114	 114	 114	 0	 0	 1	-30	 30;
	 96	 66	 0.00579	 0.0157	 0.00181	 90	 90	 90	 0	 0	 1	-30	 30;
	 66	 122	 0.00909	 0.02975	 0.00286	 114	 114	 114	 0	 0	 1	-30	 30;
	 67	 68	 0.00083	 0.00165	 0.00017	 114	 114	 114	 0	 0	 1	-30	 30;
	 92	 68	 0.00083	 0.00248	 0.00029	 114	 114	 114	 0	 0	 1	-30	 30;
	 68	 141	 0.00413	 0.0124	 0.0014	 114	 114	 114	 0	 0	 1	-30	 30;
	 70	 69	 0	 0.0001	 0	 438	 438	 438	 0	 0	 1	-30	 30;
	 120	 69	 0.01157	 0.03223	 0.00361	 57	 57	 57	 0	 0	 1	-30	 30;
	 182	 69	 0.07025	 0.12066	 0.0129	 90	 90	 90	 0	 0	 1	-30	 30;
	 181	 70	 0.03554	 0.06612	 0.00765	 90	 90	 90	 0	 0	 1	-30	 30;
	 118	 71	 0.00083	 0.00248	 0.00027	 114	 114	 114	 0	 0	 1	-30	 30;
	 160	 71	 0.00331	 0.01157	 0.00126	 140	 140	 140	 0	 0	 1	-30	 30;
	 146	 73	 0.00165	 0.00496	 0.00044	 140	 140	 140	 0	 0	 1	-30	 30;
	 174	 73	 0.00248	 0.00826	 0.00094	 140	 140	 140	 0	 0	 1	-30	 30;
	 74	 76	 0.00083	 0.00165	 0.00022	 120	 120	 120	 0	 0	 1	-30	 30;
	 77	 75	 0.00083	 0.00248	 0.00024	 120	 120	 120	 0	 0	 1	-30	 30;
	 76	 137	 0.00826	 0.02066	 0.00218	 120	 120	 120	 0	 0	 1	-30	 30;
	 163	 76	 0.00496	 0.01157	 0.00133	 120	 120	 120	 0	 0	 1	-30	 30;
	 77	 127	 0.00909	 0.02231	 0.00254	 120	 120	 120	 0	 0	 1	-30	 30;
	 134	 77	 0.00496	 0.01322	 0.00157	 120	 120	 120	 0	 0	 1	-30	 30;
	 97	 78	 0.01901	 0.06116	 0.00646	 140	 140	 140	 0	 0	 1	-30	 30;
	 78	 129	 0.02149	 0.0686	 0.00714	 140	 140	 140	 0	 0	 1	-30	 30;
	 79	 161	 0.01157	 0.03719	 0.00404	 114	 114	 114	 0	 0	 1	-30	 30;
	 84	 80	 0.0405	 0.06694	 0.00721	 57	 57	 57	 0	 0	 1	-30	 30;
	 87	 80	 0.00744	 0.02149	 0.00237	 114	 114	 114	 0	 0	 1	-30	 30;
	 106	 80	 0.02149	 0.06612	 0.00779	 114	 114	 114	 0	 0	 1	-30	 30;
	 84	 178	 0.0405	 0.05041	 0.00719	 57	 57	 57	 0	 0	 1	-30	 30;
	 85	 125	 0.00496	 0.00992	 0.00097	 90	 90	 90	 0	 0	 1	-30	 30;
	 171	 85	 0.03802	 0.07521	 0.00666	 90	 90	 90	 0	 0	 1	-30	 30;
	 160	 86	 0.01322	 0.04132	 0.00448	 140	 140	 140	 0	 0	 1	-30	 30;
	 88	 170	 0.00248	 0.00744	 0.0008	 120	 120	 120	 0	 0	 1	-30	 30;
	 89	 91	 0.00083	 0.00124	 0.0001	 90	 90	 90	 0	 0	 1	-30	 30;
	 90	 170	 0.01653	 0.02893	 0.00273	 90	 90	 90	 0	 0	 1	-30	 30;
	 95	 92	 0.0124	 0.04545	 0.00438	 114	 114	 114	 0	 0	 1	-30	 30;
	 92	 105	 0.0281	 0.0719	 0.0076	 120	 120	 120	 0	 0	 1	-30	 30;
	 92	 108	 0.00744	 0.02397	 0.00252	 114	 114	 114	 0	 0	 1	-30	 30;
	 92	 169	 0.01322	 0.04628	 0.00448	 114	 114	 114	 0	 0	 1	-30	 30;
	 93	 104	 0.00248	 0.00661	 0.0008	 114	 114	 114	 0	 0	 1	-30	 30;
	 160	 93	 0.00909	 0.02975	 0.00322	 140	 140	 140	 0	 0	 1	-30	 30;
	 94	 95	 0	 0.00083	 5e-05	 114	 114	 114	 0	 0	 1	-30	 30;
	 154	 95	 0.00083	 0.00165	 0.00019	 140	 140	 140	 0	 0	 1	-30	 30;
	 159	 96	 0.0157	 0.03636	 0.00387	 90	 90	 90	 0	 0	 1	-30	 30;
	 97	 122	 0.01983	 0.06281	 0.00658	 114	 114	 114	 0	 0	 1	-30	 30;
	 97	 127	 0.00826	 0.02149	 0.00227	 120	 120	 120	 0	 0	 1	-30	 30;
	 97	 131	 0.00661	 0.01736	 0.0024	 120	 120	 120	 0	 0	 1	-30	 30;
	 163	 97	 0.01405	 0.03388	 0.0037	 120	 120	 120	 0	 0	 1	-30	 30;
	 110	 98	 0.03471	 0.09339	 0.01232	 120	 120	 120	 0	 0	 1	-30	 30;
	 128	 98	 0.01653	 0.03802	 0.00438	 120	 120	 120	 0	 0	 1	-30	 30;
	 98	 146	 0.00331	 0.00826	 0.00085	 120	 120	 120	 0	 0	 1	-30	 30;
	 99	 101	 0.00083	 0.00248	 0.00029	 114	 114	 114	 0	 0	 1	-30	 30;
	 100	 135	 0.00165	 0.00496	 0.00056	 114	 114	 114	 0	 0	 1	-30	 30;
	 101	 135	 0.00083	 0.00331	 0.00034	 114	 114	 114	 0	 0	 1	-30	 30;
	 137	 101	 0.00579	 0.01818	 0.00196	 114	 114	 114	 0	 0	 1	-30	 30;
	 132	 102	 0.04215	 0.07025	 0.00755	 57	 57	 57	 0	 0	 1	-30	 30;
	 139	 103	 0.00744	 0.02231	 0.00252	 140	 140	 140	 0	 0	 1	-30	 30;
	 160	 103	 0.00413	 0.01157	 0.00138	 140	 140	 140	 0	 0	 1	-30	 30;
	 150	 106	 0.01488	 0.02562	 0.00283	 90	 90	 90	 0	 0	 1	-30	 30;
	 107	 108	 0	 0.00083	 2e-05	 140	 140	 140	 0	 0	 1	-30	 30;
	 110	 148	 0.00248	 0.00909	 0.00097	 114	 114	 114	 0	 0	 1	-30	 30;
	 151	 111	 0.02562	 0.06281	 0.00692	 120	 120	 120	 0	 0	 1	-30	 30;
	 168	 111	 0.02479	 0.06116	 0.0068	 120	 120	 120	 0	 0	 1	-30	 30;
	 168	 112	 0.02479	 0.06116	 0.0068	 120	 120	 120	 0	 0	 1	-30	 30;
	 113	 129	 0.00331	 0.00909	 0.00111	 140	 140	 140	 0	 0	 1	-30	 30;
	 152	 113	 0.00826	 0.02479	 0.00302	 140	 140	 140	 0	 0	 1	-30	 30;
	 118	 116	 0	 0.00083	 0	 114	 114	 114	 0	 0	 1	-30	 30;
	 117	 119	 0	 0.00083	 0	 114	 114	 114	 0	 0	 1	-30	 30;
	 161	 119	 0.00413	 0.01322	 0.00148	 140	 140	 140	 0	 0	 1	-30	 30;
	 120	 144	 0.03471	 0.10909	 0.01203	 114	 114	 114	 0	 0	 1	-30	 30;
	 121	 166	 0.02975	 0.09587	 0.01036	 57	 57	 57	 0	 0	 1	-30	 30;
	 121	 179	 0.0124	 0.03719	 0.00436	 114	 114	 114	 0	 0	 1	-30	 30;
	 122	 130	 0.02066	 0.06694	 0.00707	 140	 140	 140	 0	 0	 1	-30	 30;
	 125	 123	 0.00331	 0.00579	 0.00058	 19	 19	 19	 0	 0	 1	-30	 30;
	 126	 124	 0.00331	 0.00579	 0.00058	 19	 19	 19	 0	 0	 1	-30	 30;
	 170	 126	 0.03802	 0.07355	 0.00658	 90	 90	 90	 0	 0	 1	-30	 30;
	 161	 130	 0.02645	 0.0843	 0.00888	 114	 114	 114	 0	 0	 1	-30	 30;
	 172	 130	 0.00661	 0.01405	 0.00257	 120	 120	 120	 0	 0	 1	-30	 30;
	 131	 172	 0.00165	 0.00331	 0.00051	 120	 120	 120	 0	 0	 1	-30	 30;
	 134	 137	 0.00579	 0.01653	 0.00184	 120	 120	 120	 0	 0	 1	-30	 30;
	 136	 135	 0	 0.0001	 0	 438	 438	 438	 0	 0	 1	-30	 30;
	 149	 135	 0.00496	 0.01488	 0.00167	 114	 114	 114	 0	 0	 1	-30	 30;
	 136	 139	 0.00083	 0.00331	 0.00039	 114	 114	 114	 0	 0	 1	-30	 30;
	 136	 161	 0.01818	 0.05702	 0.00646	 114	 114	 114	 0	 0	 1	-30	 30;
	 138	 139	 0.00165	 0.00331	 0.00044	 140	 140	 140	 0	 0	 1	-30	 30;
	 140	 141	 0.00248	 0.00661	 0.00075	 114	 114	 114	 0	 0	 1	-30	 30;
	 142	 143	 0.00165	 0.00331	 0.00036	 19	 19	 19	 0	 0	 1	-30	 30;
	 171	 143	 0.10165	 0.20083	 0.01742	 90	 90	 90	 0	 0	 1	-30	 30;
...
];

mpc_regionR2.gencost = [
%	2           startup     shutdown    n           c(n-1)...c0 
	 2	 0	 0	 3	 0	 81.88	 0;
	 2	 0	 0	 3	 0	 151.94	 0;
	 2	 0	 0	 3	 0	 107.51	 0;
	 2	 0	 0	 3	 0	 0	 0;
	 2	 0	 0	 3	 0	 114.15	 0;
	 2	 0	 0	 3	 0	 0	 0;
	 2	 0	 0	 3	 0	 0	 0;
	 2	 0	 0	 3	 0	 87.95	 0;
	 2	 0	 0	 3	 0	 130.25	 0;
	 2	 0	 0	 3	 0	 0	 0;
	 2	 0	 0	 3	 0	 0	 0;
	 2	 0	 0	 3	 0	 0	 0;
	 2	 0	 0	 3	 0	 0	 0;
	 2	 0	 0	 3	 0	 137.58	 0;
	 2	 0	 0	 3	 0	 0	 0;
	 2	 0	 0	 3	 0	 0	 0;
	 2	 0	 0	 3	 0	 61.32	 0;
	 2	 0	 0	 3	 0	 0	 0;
	 2	 0	 0	 3	 0	 0	 0;
	 2	 0	 0	 3	 0	 0	 0;
	 2	 0	 0	 3	 0	 0	 0;
	 2	 0	 0	 3	 0	 0	 0;
	 2	 0	 0	 3	 0	 0	 0;
	 2	 0	 0	 3	 0	 143.83	 0;
	 2	 0	 0	 3	 0	 88	 0;
	 2	 0	 0	 3	 0	 0	 0;
	 2	 0	 0	 3	 0	 0	 0;
];


% -------------------- mpc_regionR3 --------------------

mpc_regionR3.version = '2';
mpc_regionR3.baseMVA = 100.0000;
mpc_regionR3.bus = [
%	bus_i       type        Pd          Qd          Gs          Bs          area        Vm          Va          baseKV      zone        Vmax        Vmin        
	 1	 1	 23.96	 10.96	 0	 0	 1	 1.03	 0	 220	 3	 1.11	 0.95;
	 2	 1	 22.92	 5.79	 0	 0	 1	 1.03	 0	 220	 3	 1.11	 0.95;
	 3	 2	 38.96	 52.69	 0	 0	 1	 1.03	 0	 220	 3	 1.11	 0.95;
	 4	 1	 0	 0	 0	 0	 1	 1.03	 0	 220	 3	 1.11	 0.95;
	 5	 1	 0	 0	 0	 0	 1	 1.03	 0	 220	 3	 1.11	 0.95;
	 6	 1	 0	 0	 0	 0	 1	 1.03	 0	 220	 3	 1.11	 0.95;
	 7	 1	 0	 0	 0	 0	 1	 1.03	 0	 220	 3	 1.11	 0.95;
	 8	 2	 10.42	 16.39	 0	 0	 1	 1.03	 0	 220	 3	 1.11	 0.95;
	 9	 1	 0	 0	 0	 0	 1	 1.03	 0	 220	 3	 1.11	 0.95;
	 10	 2	 7.18	 8.15	 0	 0	 1	 1.03	 0	 220	 3	 1.11	 0.95;
	 11	 1	 0	 0	 0	 0	 1	 1.03	 0	 220	 3	 1.11	 0.95;
	 12	 1	 0	 0	 0	 0	 1	 1.03	 0	 220	 3	 1.11	 0.95;
	 13	 1	 17.71	 3.3	 0	 0	 1	 1.035	 0	 110	 2	 1.12	 0.95;
	 14	 1	 6	 0	 0	 0	 1	 1.035	 0	 110	 2	 1.12	 0.95;
	 15	 1	 8.54	 0.5	 0	 0	 1	 1.035	 0	 110	 2	 1.12	 0.95;
	 16	 1	 3.44	 0.5	 0	 0	 1	 1.035	 0	 110	 2	 1.12	 0.95;
	 17	 1	 2.2	 0	 0	 0	 1	 1.035	 0	 110	 2	 1.12	 0.95;
	 18	 1	 10.39	 0	 0	 0	 1	 1.035	 0	 110	 2	 1.12	 0.95;
	 19	 1	 22.29	 4.4	 0	 0	 1	 1.035	 0	 110	 2	 1.12	 0.95;
	 20	 1	 8.02	 1.1	 0	 0	 1	 1.035	 0	 110	 2	 1.12	 0.95;
	 21	 2	 26.98	 1.4	 0	 0	 1	 1.035	 0	 110	 2	 1.12	 0.95;
	 22	 1	 9.69	 1.1	 0	 0	 1	 1.035	 0	 110	 2	 1.12	 0.95;
	 23	 1	 1.1	 0	 0	 0	 1	 1.035	 0	 110	 2	 1.12	 0.95;
	 24	 1	 4.8	 4.12	 0	 0	 1	 1.035	 0	 110	 3	 1.12	 0.95;
	 25	 1	 0	 0	 0	 0	 1	 1.035	 0	 110	 3	 1.12	 0.95;
	 26	 2	 56.67	 28.93	 0	 0	 1	 1.035	 0	 110	 3	 1.12	 0.95;
	 27	 1	 0	 0	 0	 0	 1	 1.035	 0	 110	 3	 1.12	 0.95;
	 28	 1	 4.6	 0	 0	 0	 1	 1.035	 0	 110	 3	 1.12	 0.95;
	 29	 1	 40.53	 4.3	 0	 0	 1	 1.035	 0	 110	 3	 1.12	 0.95;
	 30	 1	 20.84	 3.95	 0	 0	 1	 1.035	 0	 110	 3	 1.12	 0.95;
	 31	 1	 5.94	 1.75	 0	 0	 1	 1.035	 0	 110	 3	 1.12	 0.95;
	 32	 1	 3.54	 1.05	 0	 0	 1	 1.035	 0	 110	 3	 1.12	 0.95;
	 33	 1	 0	 0	 0	 0	 1	 1.035	 0	 110	 3	 1.12	 0.95;
	 34	 1	 33.55	 8.94	 0	 0	 1	 1.035	 0	 110	 3	 1.12	 0.95;
	 35	 1	 5.94	 1.23	 0	 0	 1	 1.035	 0	 110	 3	 1.12	 0.95;
	 36	 1	 0	 0	 0	 0	 1	 1.035	 0	 110	 3	 1.12	 0.95;
	 37	 1	 20.01	 5.08	 0	 0	 1	 1.035	 0	 110	 3	 1.12	 0.95;
	 38	 1	 19.59	 4.73	 0	 0	 1	 1.035	 0	 110	 3	 1.12	 0.95;
	 39	 1	 18.13	 2.45	 0	 0	 1	 1.035	 0	 110	 3	 1.12	 0.95;
	 40	 2	 32.2	 6.84	 0	 0	 1	 1.035	 0	 110	 3	 1.12	 0.95;
	 41	 1	 0	 0	 0	 0	 1	 1.035	 0	 110	 3	 1.12	 0.95;
	 42	 1	 5.11	 1.49	 0	 0	 1	 1.035	 0	 110	 3	 1.12	 0.95;
	 43	 1	 29.49	 6.49	 0	 0	 1	 1.035	 0	 110	 3	 1.12	 0.95;
	 44	 1	 25.21	 5.52	 0	 0	 1	 1.035	 0	 110	 3	 1.12	 0.95;
	 45	 1	 21.56	 3.77	 0	 0	 1	 1.035	 0	 110	 3	 1.12	 0.95;
	 46	 2	 9.69	 2.98	 0	 0	 1	 1.035	 0	 110	 3	 1.12	 0.95;
	 47	 1	 6.15	 2.28	 0	 0	 1	 1.035	 0	 110	 3	 1.12	 0.95;
	 48	 1	 3.44	 0.79	 0	 0	 1	 1.035	 0	 110	 3	 1.12	 0.95;
	 49	 1	 22.71	 4.3	 0	 0	 1	 1.035	 0	 110	 3	 1.12	 0.95;
	 50	 1	 0	 0	 0	 0	 1	 1.035	 0	 110	 3	 1.12	 0.95;
	 51	 1	 0	 0	 0	 0	 1	 1.035	 0	 110	 3	 1.12	 0.95;
	 52	 1	 3.23	 1.49	 0	 0	 1	 1.035	 0	 110	 3	 1.12	 0.95;
	 53	 1	 7.18	 2.02	 0	 0	 1	 1.035	 0	 110	 3	 1.12	 0.95;
	 54	 1	 0	 0	 0	 0	 1	 1.035	 0	 110	 3	 1.12	 0.95;
	 55	 1	 13.02	 3.42	 0	 0	 1	 1.035	 0	 110	 3	 1.12	 0.95;
	 56	 1	 3.4	 0	 0	 0	 1	 1.035	 0	 110	 3	 1.12	 0.95;
	 57	 1	 0.7	 0	 0	 0	 1	 1.035	 0	 110	 3	 1.12	 0.95;
	 58	 2	 31.57	 10.7	 0	 0	 1	 1.035	 0	 110	 3	 1.12	 0.95;
	 59	 2	 3.44	 2.45	 0	 0	 1	 1.035	 0	 110	 3	 1.12	 0.95;
...